pglib_opf_case6470_rte.m
%%%%%%%%%%%%%%%%%%%%%%%%%%%%%%%%%%%%%%%%%%%%%%%%%%%%%%%%%%%%%%%%%%%%%%%%%%%
%%%%                                                                  %%%%%
%%%%    IEEE PES Power Grid Library - Optimal Power Flow - v17.08     %%%%%
%%%%          (https://github.com/power-grid-lib/pglib-opf)           %%%%%
%%%%               Benchmark Group - Typical Operations               %%%%%
%%%%                        30 - August - 2017                        %%%%%
%%%%                                                                  %%%%%
%%%%%%%%%%%%%%%%%%%%%%%%%%%%%%%%%%%%%%%%%%%%%%%%%%%%%%%%%%%%%%%%%%%%%%%%%%%
%
%CASE6470RTE
%   AC Power flow data for French system.
%   Please see CASEFORMAT for details on the case file format.
%
%   This case accurately represents the size and complexity of French
%   very high voltage and high voltage transmission network.
%   These data are snapshots of French VHV+HV grid in 2013.
%   These data can be used to validate mathematical methods and tools.
%   These data should NOT be used for operation
%   nor planning of the French or European grids.
%
%   When publishing results using this data, please cite:
%     C. Josz, S. Fliscounakis, J. Maeght, and P. Panciatici,
%     "AC Power Flow Data in MATPOWER and QCQP Format: iTesla, RTE Snapshots, and PEGASE"
%     http://arxiv.org/abs/1603.01533
%
%   Contacts (primary contact for this file : Jean Maeght):
%   Cédric Josz, Stéphane Fliscounakis, Jean Maeght, Patrick Panciatici
%   firstname.lastname@rte-france.com
%   Réseau de Transport d'Electricité (French Transmission System Operator)
%   Département Expertise Système, Immeuble "Le Colbert"
%   9 rue de la Porte de Buc, 78000 Versailles Cedex, France
%   March 4th, 2016
%
%   Copyright (c) 2016 by Cédric Josz, Stéphane Fliscounakis, Jean Maeght,
%   and Patrick Panciatici
%   Licensed under the Creative Commons Attribution 4.0 International license,
%   http://creativecommons.org/licenses/by/4.0/
%
function mpc = pglib_opf_case6470_rte
mpc.version = '2';
mpc.baseMVA = 100.0;

%% bus data
%	bus_i	type	Pd	Qd	Gs	Bs	area	Vm	Va	baseKV	zone	Vmax	Vmin
mpc.bus = [
	1	 1	 0.0	 0.0	 0.0	 0.0	 1	    0.94444	    0.00000	 45.0	 1	    1.00000	    0.88889;
	2	 1	 0.0	 0.0	 0.0	 0.0	 1	    1.00000	    0.00000	 63.0	 1	    1.06349	    0.93651;
	3	 1	 12.5	 -0.7	 0.0	 0.0	 1	    1.01588	    0.00000	 63.0	 1	    1.07937	    0.95238;
	4	 1	 44.7	 -0.9	 0.0	 0.0	 1	    1.01111	    0.00000	 90.0	 1	    1.08889	    0.93333;
	5	 1	 12.0	 0.1	 0.0	 0.0	 1	    1.00794	    0.00000	 63.0	 1	    1.06349	    0.95238;
	6	 1	 13.0	 4.3	 0.0	 0.0	 1	    1.00000	    0.00000	 63.0	 1	    1.07937	    0.92063;
	7	 1	 1.2	 0.8	 0.0	 0.0	 1	    1.00000	    0.00000	 63.0	 1	    1.07937	    0.92063;
	8	 1	 25.8	 4.9	 0.0	 0.0	 1	    0.98889	    0.00000	 225.0	 1	    1.08889	    0.88889;
	9	 1	 12.9	 0.0	 0.0	 0.0	 1	    1.00000	    0.00000	 63.0	 1	    1.06349	    0.93651;
	10	 1	 0.0	 0.0	 0.0	 0.0	 1	    1.00000	    0.00000	 90.0	 1	    1.07778	    0.92222;
	11	 1	 28.8	 1.1	 0.0	 0.0	 1	    1.00000	    0.00000	 90.0	 1	    1.07778	    0.92222;
	12	 1	 0.0	 0.0	 0.0	 0.0	 1	    1.01588	    0.00000	 63.0	 1	    1.07937	    0.95238;
	13	 1	 0.0	 0.0	 0.0	 0.0	 1	    1.07895	    0.00000	 380.0	 1	    1.10263	    1.05526;
	14	 1	 51.5	 1.9	 0.0	 0.0	 1	    1.02778	    0.00000	 90.0	 1	    1.07778	    0.97778;
	15	 1	 0.0	 0.0	 0.0	 0.0	 1	    1.00000	    0.00000	 63.0	 1	    1.07937	    0.92063;
	16	 1	 13.8	 4.1	 0.0	 0.0	 1	    1.00000	    0.00000	 63.0	 1	    1.07937	    0.92063;
	17	 1	 13.1	 0.2	 0.0	 0.0	 1	    1.02222	    0.00000	 90.0	 1	    1.06667	    0.97778;
	18	 1	 0.0	 0.0	 0.0	 0.0	 1	    0.94444	    0.00000	 45.0	 1	    1.00000	    0.88889;
	19	 1	 1.0	 0.0	 0.0	 0.0	 1	    1.00000	    0.00000	 63.0	 1	    1.06349	    0.93651;
	20	 1	 0.9	 -21.5	 0.0	 0.0	 1	    0.94444	    0.00000	 45.0	 1	    1.00000	    0.88889;
	21	 1	 8.3	 -3.3	 0.0	 0.0	 1	    1.02222	    0.00000	 90.0	 1	    1.06667	    0.97778;
	22	 1	 18.0	 1.1	 0.0	 0.0	 1	    1.01588	    0.00000	 63.0	 1	    1.07937	    0.95238;
	23	 1	 19.2	 3.4	 0.0	 0.0	 1	    1.00000	    0.00000	 63.0	 1	    1.06349	    0.93651;
	24	 1	 16.1	 -1.6	 0.0	 0.0	 1	    1.03333	    0.00000	 90.0	 1	    1.11111	    0.95556;
	25	 1	 59.9	 -3.2	 0.0	 0.0	 1	    1.02222	    0.00000	 90.0	 1	    1.10000	    0.94444;
	26	 1	 35.1	 8.1	 0.0	 0.0	 1	    1.02222	    0.00000	 90.0	 1	    1.06667	    0.97778;
	27	 1	 0.0	 0.0	 0.0	 0.0	 1	    1.04444	    0.00000	 225.0	 1	    1.08444	    1.00444;
	28	 1	 0.7	 0.2	 0.0	 0.0	 1	    1.01588	    0.00000	 63.0	 1	    1.07937	    0.95238;
	29	 1	 60.1	 2.7	 0.0	 0.0	 1	    1.01587	    0.00000	 63.0	 1	    1.06349	    0.96825;
	30	 1	 33.5	 -0.9	 0.0	 0.0	 1	    1.01111	    0.00000	 90.0	 1	    1.08889	    0.93333;
	31	 1	 0.0	 0.0	 0.0	 0.0	 1	    1.00000	    0.00000	 63.0	 1	    1.06349	    0.93651;
	32	 1	 0.0	 0.0	 0.0	 0.0	 1	    1.00334	    0.00000	 150.0	 1	    1.10667	    0.90000;
	33	 1	 0.0	 0.0	 0.0	 0.0	 1	    1.01111	    0.00000	 225.0	 1	    1.08889	    0.93333;
	34	 1	 0.0	 0.0	 0.0	 0.0	 1	    1.01111	    0.00000	 225.0	 1	    1.08889	    0.93333;
	35	 1	 0.0	 0.0	 0.0	 0.0	 1	    1.07237	    0.00000	 380.0	 1	    1.10526	    1.03947;
	36	 1	 0.0	 0.0	 0.0	 0.0	 1	    1.07237	    0.00000	 380.0	 1	    1.10526	    1.03947;
	37	 1	 3.2	 4.3	 0.0	 0.0	 1	    1.00000	    0.00000	 63.0	 1	    1.07937	    0.92063;
	38	 1	 6.0	 -2.0	 0.0	 0.0	 1	    1.01587	    0.00000	 63.0	 1	    1.09524	    0.93651;
	39	 1	 41.0	 -3.3	 0.0	 0.0	 1	    1.02778	    0.00000	 90.0	 1	    1.07778	    0.97778;
	40	 1	 32.6	 0.5	 0.0	 0.0	 1	    1.02778	    0.00000	 90.0	 1	    1.07778	    0.97778;
	41	 1	 0.0	 0.0	 0.0	 0.0	 1	    1.04666	    0.00000	 225.0	 1	    1.08889	    1.00444;
	42	 1	 0.0	 0.0	 0.0	 0.0	 1	    1.04249	    0.00000	 63.0	 1	    1.13259	    0.95238;
	43	 1	 3.6	 2.0	 0.0	 0.0	 1	    1.02778	    0.00000	 90.0	 1	    1.07778	    0.97778;
	44	 1	 13.0	 -0.7	 0.0	 0.0	 1	    1.00794	    0.00000	 63.0	 1	    1.06349	    0.95238;
	45	 1	 3.9	 1.7	 0.0	 0.0	 1	    1.02222	    0.00000	 90.0	 1	    1.06667	    0.97778;
	46	 1	 0.0	 0.0	 0.0	 0.0	 1	    1.00000	    0.00000	 63.0	 1	    1.06349	    0.93651;
	47	 2	 0.0	 0.0	 0.0	 0.0	 1	    1.00000	    0.00000	 63.0	 1	    1.06349	    0.93651;
	48	 1	 36.5	 3.4	 0.0	 0.0	 1	    1.00000	    0.00000	 90.0	 1	    1.07778	    0.92222;
	49	 1	 8.8	 -1.7	 0.0	 0.0	 1	    1.00000	    0.00000	 63.0	 1	    1.06349	    0.93651;
	50	 1	 0.0	 0.0	 0.0	 0.0	 1	    1.00331	    0.00000	 63.0	 1	    1.07012	    0.93651;
	51	 1	 0.0	 0.0	 0.0	 0.0	 1	    1.01111	    0.00000	 225.0	 1	    1.08889	    0.93333;
	52	 1	 5.0	 2.4	 0.0	 0.0	 1	    1.02222	    0.00000	 90.0	 1	    1.06667	    0.97778;
	53	 1	 2.5	 -0.5	 0.0	 0.0	 1	    1.00000	    0.00000	 63.0	 1	    1.04762	    0.95238;
	54	 1	 -0.4	 -0.0	 0.0	 0.0	 1	    1.02222	    0.00000	 90.0	 1	    1.06667	    0.97778;
	55	 1	 37.6	 6.7	 0.0	 0.0	 1	    1.04666	    0.00000	 225.0	 1	    1.08889	    1.00444;
	56	 1	 52.1	 13.5	 0.0	 0.0	 1	    1.04666	    0.00000	 225.0	 1	    1.08889	    1.00444;
	57	 2	 0.0	 0.0	 0.0	 0.0	 1	    1.00000	    0.00000	 63.0	 1	    1.07937	    0.92063;
	58	 1	 130.6	 30.1	 0.0	 0.0	 1	    1.04666	    0.00000	 225.0	 1	    1.08889	    1.00444;
	59	 1	 5.1	 1.3	 0.0	 0.0	 1	    1.01588	    0.00000	 63.0	 1	    1.07937	    0.95238;
	60	 1	 0.0	 0.0	 0.0	 0.0	 1	    1.01588	    0.00000	 63.0	 1	    1.07937	    0.95238;
	61	 1	 39.5	 9.7	 0.0	 0.0	 1	    1.01588	    0.00000	 63.0	 1	    1.07937	    0.95238;
	62	 1	 0.0	 0.0	 0.0	 0.0	 1	    1.01588	    0.00000	 63.0	 1	    1.07937	    0.95238;
	63	 1	 15.8	 2.0	 0.0	 0.0	 1	    1.01588	    0.00000	 63.0	 1	    1.07937	    0.95238;
	64	 1	 62.4	 1.0	 0.0	 0.0	 1	    0.98889	    0.00000	 225.0	 1	    1.08889	    0.88889;
	65	 1	 11.0	 2.8	 0.0	 0.0	 1	    1.01588	    0.00000	 63.0	 1	    1.07937	    0.95238;
	66	 1	 13.2	 -7.9	 0.0	 0.0	 1	    1.00000	    0.00000	 63.0	 1	    1.06349	    0.93651;
	67	 1	 0.0	 0.0	 0.0	 0.0	 1	    1.00000	    0.00000	 63.0	 1	    1.07937	    0.92063;
	68	 1	 48.1	 -0.1	 0.0	 0.0	 1	    1.00000	    0.00000	 63.0	 1	    1.06349	    0.93651;
	69	 1	 19.3	 -2.7	 0.0	 0.0	 1	    1.00794	    0.00000	 63.0	 1	    1.06349	    0.95238;
	70	 1	 10.6	 2.7	 0.0	 0.0	 1	    1.01588	    0.00000	 63.0	 1	    1.07937	    0.95238;
	71	 1	 62.4	 14.9	 0.0	 0.0	 1	    1.00000	    0.00000	 63.0	 1	    1.04762	    0.95238;
	72	 1	 0.0	 0.0	 0.0	 0.0	 1	    1.04736	    0.00000	 225.0	 1	    1.09027	    1.00444;
	73	 1	 0.0	 0.0	 0.0	 0.0	 1	    1.04734	    0.00000	 225.0	 1	    1.09025	    1.00444;
	74	 1	 50.4	 -9.9	 0.0	 0.0	 1	    0.98889	    0.00000	 225.0	 1	    1.08889	    0.88889;
	75	 1	 22.3	 1.8	 0.0	 0.0	 1	    1.02254	    0.00000	 90.0	 1	    1.06730	    0.97778;
	76	 1	 2.6	 -0.4	 0.0	 0.0	 1	    1.03795	    0.00000	 225.0	 1	    1.08923	    0.98667;
	77	 1	 36.8	 -0.4	 0.0	 0.0	 1	    1.00000	    0.00000	 63.0	 1	    1.06349	    0.93651;
	78	 1	 0.0	 0.0	 0.0	 0.0	 1	    1.00000	    0.00000	 63.0	 1	    1.07937	    0.92063;
	79	 1	 0.0	 0.0	 0.0	 0.0	 1	    1.00000	    0.00000	 63.0	 1	    1.04762	    0.95238;
	80	 1	 32.3	 7.3	 0.0	 0.0	 1	    1.04666	    0.00000	 225.0	 1	    1.08889	    1.00444;
	81	 1	 36.3	 9.9	 0.0	 0.0	 1	    1.04666	    0.00000	 225.0	 1	    1.08889	    1.00444;
	82	 1	 11.7	 1.6	 0.0	 0.0	 1	    1.00000	    0.00000	 63.0	 1	    1.06349	    0.93651;
	83	 1	 77.5	 26.4	 0.0	 0.0	 1	    1.04666	    0.00000	 225.0	 1	    1.08889	    1.00444;
	84	 1	 -1.6	 -1.2	 0.0	 0.0	 1	    1.00000	    0.00000	 63.0	 1	    1.06349	    0.93651;
	85	 1	 2.1	 -2.1	 0.0	 0.0	 1	    1.00000	    0.00000	 63.0	 1	    1.06349	    0.93651;
	86	 1	 48.9	 3.6	 0.0	 0.0	 1	    1.02222	    0.00000	 90.0	 1	    1.06667	    0.97778;
	87	 1	 0.0	 0.0	 0.0	 0.0	 1	    1.01588	    0.00000	 63.0	 1	    1.07937	    0.95238;
	88	 1	 13.5	 -0.1	 0.0	 0.0	 1	    1.00000	    0.00000	 63.0	 1	    1.06349	    0.93651;
	89	 1	 25.4	 0.8	 0.0	 0.0	 1	    1.02778	    0.00000	 90.0	 1	    1.07778	    0.97778;
	90	 1	 0.4	 -1.4	 0.0	 0.0	 1	    0.94444	    0.00000	 45.0	 1	    1.00000	    0.88889;
	91	 1	 1.0	 0.0	 0.0	 0.0	 1	    0.94444	    0.00000	 45.0	 1	    1.00000	    0.88889;
	92	 1	 28.6	 3.2	 0.0	 0.0	 1	    1.01587	    0.00000	 63.0	 1	    1.06349	    0.96825;
	93	 1	 2.1	 -2.5	 0.0	 0.0	 1	    0.94444	    0.00000	 45.0	 1	    1.00000	    0.88889;
	94	 1	 17.5	 -4.3	 0.0	 0.0	 1	    1.02222	    0.00000	 90.0	 1	    1.06667	    0.97778;
	95	 1	 46.5	 7.6	 0.0	 0.0	 1	    1.02222	    0.00000	 90.0	 1	    1.06667	    0.97778;
	96	 1	 1.5	 -0.7	 0.0	 0.0	 1	    1.00000	    0.00000	 63.0	 1	    1.06349	    0.93651;
	97	 1	 56.4	 0.9	 0.0	 0.0	 1	    1.00000	    0.00000	 63.0	 1	    1.07937	    0.92063;
	98	 1	 7.4	 -1.3	 0.0	 0.0	 1	    1.01588	    0.00000	 63.0	 1	    1.07937	    0.95238;
	99	 1	 26.9	 3.1	 0.0	 0.0	 1	    1.01588	    0.00000	 63.0	 1	    1.07937	    0.95238;
	100	 1	 53.3	 8.6	 0.0	 0.0	 1	    1.00000	    0.00000	 63.0	 1	    1.06349	    0.93651;
	101	 1	 17.7	 0.5	 0.0	 0.0	 1	    1.00000	    0.00000	 63.0	 1	    1.06349	    0.93651;
	102	 2	 0.0	 0.0	 0.0	 0.0	 1	    1.01588	    0.00000	 63.0	 1	    1.07937	    0.95238;
	103	 1	 18.0	 -1.1	 0.0	 0.0	 1	    1.01588	    0.00000	 63.0	 1	    1.07937	    0.95238;
	104	 1	 0.0	 0.0	 0.0	 0.0	 1	    1.03778	    0.00000	 225.0	 1	    1.08889	    0.98667;
	105	 1	 35.5	 1.0	 0.0	 0.0	 1	    0.98889	    0.00000	 225.0	 1	    1.08889	    0.88889;
	106	 1	 49.8	 7.5	 0.0	 0.0	 1	    1.02222	    0.00000	 90.0	 1	    1.10000	    0.94444;
	107	 1	 77.6	 8.1	 0.0	 0.0	 1	    1.04666	    0.00000	 225.0	 1	    1.08444	    1.00889;
	108	 1	 12.6	 -0.4	 0.0	 0.0	 1	    1.02778	    0.00000	 90.0	 1	    1.07778	    0.97778;
	109	 1	 68.7	 10.9	 0.0	 0.0	 1	    1.00000	    0.00000	 63.0	 1	    1.06349	    0.93651;
	110	 1	 0.0	 0.0	 0.0	 0.0	 1	    1.01111	    0.00000	 225.0	 1	    1.08889	    0.93333;
	111	 1	 36.5	 -7.9	 0.0	 0.0	 1	    1.01587	    0.00000	 63.0	 1	    1.06349	    0.96825;
	112	 1	 0.0	 0.0	 0.0	 0.0	 1	    1.00000	    0.00000	 63.0	 1	    1.04762	    0.95238;
	113	 1	 0.0	 0.0	 0.0	 0.0	 1	    1.04666	    0.00000	 225.0	 1	    1.08889	    1.00444;
	114	 1	 10.8	 -0.0	 0.0	 0.0	 1	    1.00000	    0.00000	 63.0	 1	    1.06349	    0.93651;
	115	 1	 0.0	 0.0	 0.0	 0.0	 1	    1.07895	    0.00000	 380.0	 1	    1.10526	    1.05263;
	116	 1	 0.0	 0.0	 0.0	 0.0	 1	    1.07895	    0.00000	 380.0	 1	    1.10526	    1.05263;
	117	 1	 15.4	 -1.0	 0.0	 0.0	 1	    1.01588	    0.00000	 63.0	 1	    1.07937	    0.95238;
	118	 1	 2.0	 0.8	 0.0	 0.0	 1	    1.02368	    0.00000	 90.0	 1	    1.06958	    0.97778;
	119	 1	 37.2	 5.3	 0.0	 0.0	 1	    1.00000	    0.00000	 63.0	 1	    1.06349	    0.93651;
	120	 1	 17.0	 -3.2	 0.0	 0.0	 1	    1.00000	    0.00000	 63.0	 1	    1.06349	    0.93651;
	121	 1	 17.6	 3.9	 0.0	 0.0	 1	    1.00000	    0.00000	 63.0	 1	    1.07937	    0.92063;
	122	 2	 0.0	 0.0	 0.0	 0.0	 1	    1.01588	    0.00000	 63.0	 1	    1.07937	    0.95238;
	123	 1	 9.0	 2.6	 0.0	 0.0	 1	    1.01588	    0.00000	 63.0	 1	    1.07937	    0.95238;
	124	 1	 8.0	 -0.9	 0.0	 0.0	 1	    1.02222	    0.00000	 90.0	 1	    1.06667	    0.97778;
	125	 1	 10.5	 -0.5	 0.0	 0.0	 1	    1.01588	    0.00000	 63.0	 1	    1.07937	    0.95238;
	126	 1	 0.3	 -0.1	 0.0	 0.0	 1	    1.00000	    0.00000	 63.0	 1	    1.06349	    0.93651;
	127	 1	 7.8	 1.5	 0.0	 0.0	 1	    1.00000	    0.00000	 63.0	 1	    1.04762	    0.95238;
	128	 1	 11.8	 7.6	 0.0	 0.0	 1	    1.01587	    0.00000	 63.0	 1	    1.06349	    0.96825;
	129	 1	 16.7	 11.8	 0.0	 0.0	 1	    1.01587	    0.00000	 63.0	 1	    1.06349	    0.96825;
	130	 1	 0.0	 0.0	 0.0	 0.0	 1	    1.04666	    0.00000	 225.0	 1	    1.08444	    1.00889;
	131	 1	 103.0	 13.6	 0.0	 0.0	 1	    1.04666	    0.00000	 225.0	 1	    1.08444	    1.00889;
	132	 2	 11.5	 0.0	 0.0	 0.0	 1	    1.00000	    0.00000	 90.0	 1	    1.07778	    0.92222;
	133	 1	 2.1	 0.5	 0.0	 0.0	 1	    1.00000	    0.00000	 63.0	 1	    1.04762	    0.95238;
	134	 1	 83.5	 23.6	 0.0	 0.0	 1	    1.04666	    0.00000	 225.0	 1	    1.08889	    1.00444;
	135	 1	 0.0	 0.0	 0.0	 0.0	 1	    1.04666	    0.00000	 225.0	 1	    1.08889	    1.00444;
	136	 1	 21.9	 -0.2	 0.0	 0.0	 1	    1.02778	    0.00000	 90.0	 1	    1.07778	    0.97778;
	137	 2	 9.6	 -4.4	 0.0	 0.0	 1	    1.01587	    0.00000	 63.0	 1	    1.06349	    0.96825;
	138	 1	 0.0	 0.0	 0.0	 0.0	 1	    1.02333	    0.00000	 150.0	 1	    1.08000	    0.96667;
	139	 1	 15.7	 2.2	 0.0	 0.0	 1	    1.00000	    0.00000	 63.0	 1	    1.07937	    0.92063;
	140	 1	 0.0	 0.0	 0.0	 80.0	 1	    1.04445	    0.00000	 225.0	 1	    1.08889	    1.00000;
	141	 1	 0.0	 0.0	 0.0	 0.0	 1	    1.07895	    0.00000	 380.0	 1	    1.10526	    1.05263;
	142	 1	 14.8	 5.8	 0.0	 0.0	 1	    1.01588	    0.00000	 63.0	 1	    1.07937	    0.95238;
	143	 1	 0.0	 0.0	 0.0	 0.0	 1	    1.03778	    0.00000	 225.0	 1	    1.08889	    0.98667;
	144	 1	 23.3	 -10.3	 0.0	 0.0	 1	    1.03333	    0.00000	 90.0	 1	    1.11111	    0.95556;
	145	 1	 27.6	 5.9	 0.0	 0.0	 1	    1.02889	    0.00000	 225.0	 1	    1.08889	    0.96889;
	146	 1	 0.0	 0.0	 0.0	 0.0	 1	    1.05263	    0.00000	 380.0	 1	    1.10526	    1.00000;
	147	 1	 29.0	 5.5	 0.0	 0.0	 1	    1.00000	    0.00000	 63.0	 1	    1.06349	    0.93651;
	148	 1	 6.7	 2.4	 0.0	 0.0	 1	    1.00000	    0.00000	 63.0	 1	    1.06349	    0.93651;
	149	 1	 17.9	 6.1	 0.0	 0.0	 1	    1.02222	    0.00000	 90.0	 1	    1.06667	    0.97778;
	150	 1	 44.5	 6.4	 0.0	 0.0	 1	    1.00000	    0.00000	 63.0	 1	    1.06349	    0.93651;
	151	 1	 0.0	 0.0	 0.0	 0.0	 1	    1.01587	    0.00000	 63.0	 1	    1.06349	    0.96825;
	152	 1	 38.3	 8.8	 0.0	 7.7	 1	    1.01587	    0.00000	 63.0	 1	    1.06349	    0.96825;
	153	 1	 23.2	 -2.6	 0.0	 0.0	 1	    1.00000	    0.00000	 63.0	 1	    1.06349	    0.93651;
	154	 1	 0.0	 0.0	 0.0	 0.0	 1	    1.01111	    0.00000	 225.0	 1	    1.08889	    0.93333;
	155	 2	 0.0	 0.0	 0.0	 0.0	 1	    1.00000	    0.00000	 63.0	 1	    1.07937	    0.92063;
	156	 1	 0.0	 0.0	 0.0	 0.0	 1	    1.01587	    0.00000	 63.0	 1	    1.06349	    0.96825;
	157	 1	 0.3	 3.1	 0.0	 0.0	 1	    0.94444	    0.00000	 45.0	 1	    1.00000	    0.88889;
	158	 2	 0.0	 0.0	 0.0	 0.0	 1	    0.94444	    0.00000	 45.0	 1	    1.00000	    0.88889;
	159	 1	 0.0	 0.0	 0.0	 0.0	 1	    1.00000	    0.00000	 63.0	 1	    1.06349	    0.93651;
	160	 1	 35.2	 5.6	 0.0	 0.0	 1	    0.98889	    0.00000	 225.0	 1	    1.08889	    0.88889;
	161	 1	 38.2	 8.7	 0.0	 0.0	 1	    0.98889	    0.00000	 225.0	 1	    1.08889	    0.88889;
	162	 1	 0.7	 -1.4	 0.0	 0.0	 1	    1.02222	    0.00000	 90.0	 1	    1.06667	    0.97778;
	163	 1	 0.0	 0.0	 0.0	 0.0	 1	    1.01588	    0.00000	 63.0	 1	    1.07937	    0.95238;
	164	 1	 0.0	 0.0	 0.0	 0.0	 1	    1.01588	    0.00000	 63.0	 1	    1.07937	    0.95238;
	165	 1	 16.7	 9.2	 0.0	 0.0	 1	    0.97500	    0.00000	 20.0	 1	    1.15000	    0.80000;
	166	 1	 10.1	 2.4	 0.0	 0.0	 1	    1.02222	    0.00000	 90.0	 1	    1.06667	    0.97778;
	167	 1	 13.6	 0.6	 0.0	 0.0	 1	    1.02222	    0.00000	 90.0	 1	    1.06667	    0.97778;
	168	 1	 0.0	 0.0	 0.0	 0.0	 1	    1.04444	    0.00000	 225.0	 1	    1.08444	    1.00444;
	169	 1	 10.8	 -1.0	 0.0	 0.0	 1	    1.02222	    0.00000	 90.0	 1	    1.06667	    0.97778;
	170	 1	 70.4	 11.6	 0.0	 0.0	 1	    1.02778	    0.00000	 90.0	 1	    1.07778	    0.97778;
	171	 1	 26.5	 -0.4	 0.0	 0.0	 1	    1.02778	    0.00000	 90.0	 1	    1.07778	    0.97778;
	172	 1	 0.0	 0.0	 0.0	 0.0	 1	    1.04666	    0.00000	 225.0	 1	    1.08889	    1.00444;
	173	 1	 27.7	 8.5	 0.0	 0.0	 1	    1.01111	    0.00000	 90.0	 1	    1.08889	    0.93333;
	174	 1	 47.4	 4.6	 0.0	 0.0	 1	    1.03333	    0.00000	 90.0	 1	    1.11111	    0.95556;
	175	 1	 0.0	 0.0	 0.0	 0.0	 1	    1.00000	    0.00000	 63.0	 1	    1.07937	    0.92063;
	176	 1	 0.0	 0.0	 0.0	 0.0	 1	    1.00000	    0.00000	 63.0	 1	    1.07937	    0.92063;
	177	 2	 0.0	 0.0	 0.0	 0.0	 1	    1.00000	    0.00000	 150.0	 1	    1.10000	    0.90000;
	178	 1	 0.0	 0.0	 0.0	 0.0	 1	    1.04666	    0.00000	 225.0	 1	    1.08889	    1.00444;
	179	 1	 0.0	 0.0	 0.0	 0.0	 1	    1.04666	    0.00000	 225.0	 1	    1.08889	    1.00444;
	180	 1	 0.0	 0.0	 0.0	 -32.0	 1	    0.97500	    0.00000	 20.0	 1	    1.15000	    0.80000;
	181	 1	 0.0	 0.0	 0.0	 -32.0	 1	    0.97500	    0.00000	 20.0	 1	    1.15000	    0.80000;
	182	 1	 0.0	 0.0	 0.0	 0.0	 1	    1.00000	    0.00000	 63.0	 1	    1.04762	    0.95238;
	183	 1	 0.0	 0.0	 0.0	 0.0	 1	    1.04666	    0.00000	 225.0	 1	    1.08889	    1.00444;
	184	 1	 12.9	 -4.6	 0.0	 0.0	 1	    1.00000	    0.00000	 63.0	 1	    1.07937	    0.92063;
	185	 1	 16.0	 3.1	 0.0	 0.0	 1	    1.00000	    0.00000	 63.0	 1	    1.06349	    0.93651;
	186	 1	 4.8	 -0.4	 0.0	 0.0	 1	    1.01588	    0.00000	 63.0	 1	    1.07937	    0.95238;
	187	 1	 5.0	 1.4	 0.0	 0.0	 1	    1.02778	    0.00000	 90.0	 1	    1.07778	    0.97778;
	188	 1	 28.7	 4.0	 0.0	 0.0	 1	    1.01588	    0.00000	 63.0	 1	    1.07937	    0.95238;
	189	 1	 1.1	 0.3	 0.0	 0.0	 1	    1.02222	    0.00000	 90.0	 1	    1.06667	    0.97778;
	190	 2	 0.0	 0.0	 0.0	 0.0	 1	    1.00000	    0.00000	 63.0	 1	    1.07937	    0.92063;
	191	 1	 16.2	 1.6	 0.0	 0.0	 1	    1.00000	    0.00000	 63.0	 1	    1.07937	    0.92063;
	192	 2	 0.0	 0.0	 0.0	 0.0	 1	    0.94444	    0.00000	 45.0	 1	    1.00000	    0.88889;
	193	 1	 13.8	 -0.3	 0.0	 0.0	 1	    1.02222	    0.00000	 90.0	 1	    1.06667	    0.97778;
	194	 1	 7.4	 -1.5	 0.0	 0.0	 1	    1.00000	    0.00000	 63.0	 1	    1.07937	    0.92063;
	195	 1	 7.9	 4.8	 0.0	 0.0	 1	    1.04666	    0.00000	 225.0	 1	    1.08889	    1.00444;
	196	 2	 1.0	 -0.3	 0.0	 0.0	 1	    1.00000	    0.00000	 63.0	 1	    1.07937	    0.92063;
	197	 1	 0.0	 0.0	 0.0	 0.0	 1	    1.02538	    0.00000	 63.0	 1	    1.09837	    0.95238;
	198	 1	 0.0	 0.0	 0.0	 0.0	 1	    1.02538	    0.00000	 63.0	 1	    1.09837	    0.95238;
	199	 1	 24.4	 1.2	 0.0	 0.0	 1	    1.00000	    0.00000	 63.0	 1	    1.07937	    0.92063;
	200	 1	 9.3	 -2.7	 0.0	 0.0	 1	    1.00000	    0.00000	 63.0	 1	    1.07937	    0.92063;
...
];

%% generator data
%	bus	Pg	Qg	Qmax	Qmin	Vg	mBase	status	Pmax	Pmin	Pc1	Pc2	Qc1min	Qc1max	Qc2min	Qc2max	ramp_agc	ramp_10	ramp_30	ramp_q	apf
mpc.gen = [
	4	 6.0	 0.0	 0.0	 0.0	 1.045	 100.0	 0	 12.0	 0.0	 0.0	 0.0	 0.0	 0.0	 0.0	 0.0	 0.0	 0.0	 0.0	 0.0	 0.0; % COW
	4	 5.0	 0.0	 0.0	 0.0	 1.045	 100.0	 0	 10.0	 0.0	 0.0	 0.0	 0.0	 0.0	 0.0	 0.0	 0.0	 0.0	 0.0	 0.0	 0.0; % NG
	5	 4.55	 0.0	 0.0	 0.0	 1.017	 100.0	 1	 9.1	 0.0	 0.0	 0.0	 0.0	 0.0	 0.0	 0.0	 0.0	 0.0	 0.0	 0.0	 0.0; % NG
	11	 14.0	 0.0	 0.0	 0.0	 1.035	 100.0	 0	 28.0	 0.0	 0.0	 0.0	 0.0	 0.0	 0.0	 0.0	 0.0	 0.0	 0.0	 0.0	 0.0; % PEL
	11	 9.0	 0.0	 0.0	 0.0	 1.035	 100.0	 0	 18.0	 0.0	 0.0	 0.0	 0.0	 0.0	 0.0	 0.0	 0.0	 0.0	 0.0	 0.0	 0.0; % PEL
	17	 4.1	 0.0	 0.0	 0.0	 1.049	 100.0	 1	 8.2	 0.0	 0.0	 0.0	 0.0	 0.0	 0.0	 0.0	 0.0	 0.0	 0.0	 0.0	 0.0; % COW
	19	 0.6	 0.0	 0.0	 0.0	 1.02	 100.0	 0	 1.2	 0.0	 0.0	 0.0	 0.0	 0.0	 0.0	 0.0	 0.0	 0.0	 0.0	 0.0	 0.0; % PEL
	22	 5.0	 0.0	 0.0	 0.0	 1.013	 100.0	 0	 10.0	 0.0	 0.0	 0.0	 0.0	 0.0	 0.0	 0.0	 0.0	 0.0	 0.0	 0.0	 0.0; % PEL
	24	 8.05	 0.0	 0.0	 0.0	 1.042	 100.0	 0	 16.1	 0.0	 0.0	 0.0	 0.0	 0.0	 0.0	 0.0	 0.0	 0.0	 0.0	 0.0	 0.0; % NG
	24	 17.75	 0.0	 0.0	 0.0	 1.042	 100.0	 1	 35.5	 0.0	 0.0	 0.0	 0.0	 0.0	 0.0	 0.0	 0.0	 0.0	 0.0	 0.0	 0.0; % PEL
	25	 18.0	 0.0	 0.0	 0.0	 1.074	 100.0	 1	 36.0	 0.0	 0.0	 0.0	 0.0	 0.0	 0.0	 0.0	 0.0	 0.0	 0.0	 0.0	 0.0; % PEL
	25	 13.6	 0.0	 0.0	 0.0	 1.074	 100.0	 0	 27.2	 0.0	 0.0	 0.0	 0.0	 0.0	 0.0	 0.0	 0.0	 0.0	 0.0	 0.0	 0.0; % NG
	40	 4.0	 0.0	 0.0	 0.0	 1.063	 100.0	 0	 8.0	 0.0	 0.0	 0.0	 0.0	 0.0	 0.0	 0.0	 0.0	 0.0	 0.0	 0.0	 0.0; % COW
	47	 8.0	 0.0	 9.5	 -9.5	 1.012	 100.0	 1	 16.0	 0.0	 0.0	 0.0	 0.0	 0.0	 0.0	 0.0	 0.0	 0.0	 0.0	 0.0	 0.0; % NG
	47	 8.0	 0.0	 9.5	 -9.5	 1.012	 100.0	 0	 16.0	 0.0	 0.0	 0.0	 0.0	 0.0	 0.0	 0.0	 0.0	 0.0	 0.0	 0.0	 0.0; % NG
	48	 11.5	 0.0	 0.0	 0.0	 1.035	 100.0	 1	 23.0	 0.0	 0.0	 0.0	 0.0	 0.0	 0.0	 0.0	 0.0	 0.0	 0.0	 0.0	 0.0; % NG
	48	 12.0	 0.0	 0.0	 0.0	 1.035	 100.0	 1	 24.0	 0.0	 0.0	 0.0	 0.0	 0.0	 0.0	 0.0	 0.0	 0.0	 0.0	 0.0	 0.0; % COW
	57	 6.5	 0.95	 1.0	 0.9	 1.051	 100.0	 1	 13.0	 0.0	 0.0	 0.0	 0.0	 0.0	 0.0	 0.0	 0.0	 0.0	 0.0	 0.0	 0.0; % NG
	64	 12.0	 0.0	 0.0	 0.0	 1.075	 100.0	 0	 24.0	 0.0	 0.0	 0.0	 0.0	 0.0	 0.0	 0.0	 0.0	 0.0	 0.0	 0.0	 0.0; % PEL
	64	 13.8	 0.0	 0.0	 0.0	 1.075	 100.0	 1	 27.6	 0.0	 0.0	 0.0	 0.0	 0.0	 0.0	 0.0	 0.0	 0.0	 0.0	 0.0	 0.0; % NG
	69	 15.02	 0.0	 0.0	 0.0	 1.042	 100.0	 1	 30.04	 0.0	 0.0	 0.0	 0.0	 0.0	 0.0	 0.0	 0.0	 0.0	 0.0	 0.0	 0.0; % NG
	70	 11.5	 0.0	 0.0	 0.0	 1.015	 100.0	 1	 23.0	 0.0	 0.0	 0.0	 0.0	 0.0	 0.0	 0.0	 0.0	 0.0	 0.0	 0.0	 0.0; % PEL
	85	 3.34	 0.0	 0.0	 0.0	 1.034	 100.0	 0	 6.68	 0.0	 0.0	 0.0	 0.0	 0.0	 0.0	 0.0	 0.0	 0.0	 0.0	 0.0	 0.0; % NG
	86	 4.6	 0.0	 0.0	 0.0	 1.021	 100.0	 1	 9.2	 0.0	 0.0	 0.0	 0.0	 0.0	 0.0	 0.0	 0.0	 0.0	 0.0	 0.0	 0.0; % NG
	102	 23.0	 6.0	 21.0	 -9.0	 1.026	 100.0	 1	 46.0	 0.0	 0.0	 0.0	 0.0	 0.0	 0.0	 0.0	 0.0	 0.0	 0.0	 0.0	 0.0; % NG
	122	 6.0	 1.5	 5.0	 -2.0	 1.026	 100.0	 1	 12.0	 0.0	 0.0	 0.0	 0.0	 0.0	 0.0	 0.0	 0.0	 0.0	 0.0	 0.0	 0.0; % COW
	124	 4.5	 0.0	 0.0	 0.0	 1.038	 100.0	 1	 9.0	 0.0	 0.0	 0.0	 0.0	 0.0	 0.0	 0.0	 0.0	 0.0	 0.0	 0.0	 0.0; % PEL
	125	 13.0	 0.0	 0.0	 0.0	 1.037	 100.0	 1	 26.0	 0.0	 0.0	 0.0	 0.0	 0.0	 0.0	 0.0	 0.0	 0.0	 0.0	 0.0	 0.0; % NG
	125	 6.0	 0.0	 0.0	 0.0	 1.037	 100.0	 1	 12.0	 0.0	 0.0	 0.0	 0.0	 0.0	 0.0	 0.0	 0.0	 0.0	 0.0	 0.0	 0.0; % PEL
	132	 8.5	 0.0	 3.0	 -3.0	 1.065	 100.0	 1	 17.0	 0.0	 0.0	 0.0	 0.0	 0.0	 0.0	 0.0	 0.0	 0.0	 0.0	 0.0	 0.0; % NG
	132	 2.0	 0.0	 1.0	 -1.0	 1.065	 100.0	 0	 4.0	 0.0	 0.0	 0.0	 0.0	 0.0	 0.0	 0.0	 0.0	 0.0	 0.0	 0.0	 0.0; % NG
	132	 7.0	 0.0	 3.0	 -3.0	 1.065	 100.0	 0	 14.0	 0.0	 0.0	 0.0	 0.0	 0.0	 0.0	 0.0	 0.0	 0.0	 0.0	 0.0	 0.0; % COW
	132	 7.0	 0.0	 3.0	 -3.0	 1.065	 100.0	 0	 14.0	 0.0	 0.0	 0.0	 0.0	 0.0	 0.0	 0.0	 0.0	 0.0	 0.0	 0.0	 0.0; % COW
	137	 9.0	 0.0	 0.8	 -0.8	 1.032	 100.0	 0	 18.0	 0.0	 0.0	 0.0	 0.0	 0.0	 0.0	 0.0	 0.0	 0.0	 0.0	 0.0	 0.0; % NG
	137	 9.0	 0.0	 0.8	 -0.8	 1.032	 100.0	 1	 18.0	 0.0	 0.0	 0.0	 0.0	 0.0	 0.0	 0.0	 0.0	 0.0	 0.0	 0.0	 0.0; % PEL
	155	 2.65	 0.0	 1.76	 -1.76	 0.971	 100.0	 0	 5.3	 0.0	 0.0	 0.0	 0.0	 0.0	 0.0	 0.0	 0.0	 0.0	 0.0	 0.0	 0.0; % NG
	158	 8.95	 -1.5	 10.0	 -13.0	 0.947	 100.0	 1	 17.9	 0.0	 0.0	 0.0	 0.0	 0.0	 0.0	 0.0	 0.0	 0.0	 0.0	 0.0	 0.0; % NG
	158	 8.95	 -1.5	 10.0	 -13.0	 0.947	 100.0	 0	 17.9	 0.0	 0.0	 0.0	 0.0	 0.0	 0.0	 0.0	 0.0	 0.0	 0.0	 0.0	 0.0; % PEL
	177	 15.0	 3.0	 10.0	 -4.0	 1.073	 100.0	 0	 30.0	 0.0	 0.0	 0.0	 0.0	 0.0	 0.0	 0.0	 0.0	 0.0	 0.0	 0.0	 0.0; % NG
	190	 5.5	 0.0	 8.0	 -8.0	 1.009	 100.0	 0	 11.0	 0.0	 0.0	 0.0	 0.0	 0.0	 0.0	 0.0	 0.0	 0.0	 0.0	 0.0	 0.0; % PEL
	190	 5.5	 0.0	 2.0	 -2.0	 1.009	 100.0	 0	 11.0	 0.0	 0.0	 0.0	 0.0	 0.0	 0.0	 0.0	 0.0	 0.0	 0.0	 0.0	 0.0; % NG
	192	 15.0	 0.0	 14.0	 -14.0	 0.939	 100.0	 0	 30.0	 0.0	 0.0	 0.0	 0.0	 0.0	 0.0	 0.0	 0.0	 0.0	 0.0	 0.0	 0.0; % NG
	194	 11.75	 0.0	 0.0	 0.0	 1.05	 100.0	 0	 23.5	 0.0	 0.0	 0.0	 0.0	 0.0	 0.0	 0.0	 0.0	 0.0	 0.0	 0.0	 0.0; % PEL
	196	 7.5	 0.95	 1.0	 0.9	 1.037	 100.0	 1	 15.0	 0.0	 0.0	 0.0	 0.0	 0.0	 0.0	 0.0	 0.0	 0.0	 0.0	 0.0	 0.0; % NG
	196	 7.5	 0.95	 1.0	 0.9	 1.037	 100.0	 1	 15.0	 0.0	 0.0	 0.0	 0.0	 0.0	 0.0	 0.0	 0.0	 0.0	 0.0	 0.0	 0.0; % PEL
	219	 5.97	 0.0	 0.0	 0.0	 1.016	 100.0	 1	 11.94	 0.0	 0.0	 0.0	 0.0	 0.0	 0.0	 0.0	 0.0	 0.0	 0.0	 0.0	 0.0; % PEL
	226	 3.0	 1.0	 2.0	 0.0	 1.073	 100.0	 0	 6.0	 0.0	 0.0	 0.0	 0.0	 0.0	 0.0	 0.0	 0.0	 0.0	 0.0	 0.0	 0.0; % PEL
	229	 3.75	 0.0	 0.0	 0.0	 1.025	 100.0	 1	 7.5	 0.0	 0.0	 0.0	 0.0	 0.0	 0.0	 0.0	 0.0	 0.0	 0.0	 0.0	 0.0; % NG
	238	 16.75	 0.0	 0.0	 0.0	 1.047	 100.0	 1	 33.5	 0.0	 0.0	 0.0	 0.0	 0.0	 0.0	 0.0	 0.0	 0.0	 0.0	 0.0	 0.0; % NG
	238	 12.15	 0.0	 0.0	 0.0	 1.047	 100.0	 1	 24.3	 0.0	 0.0	 0.0	 0.0	 0.0	 0.0	 0.0	 0.0	 0.0	 0.0	 0.0	 0.0; % PEL
	240	 4.0	 0.0	 0.0	 0.0	 1.022	 100.0	 0	 8.0	 0.0	 0.0	 0.0	 0.0	 0.0	 0.0	 0.0	 0.0	 0.0	 0.0	 0.0	 0.0; % NG
	240	 18.0	 0.0	 0.0	 0.0	 1.022	 100.0	 1	 36.0	 0.0	 0.0	 0.0	 0.0	 0.0	 0.0	 0.0	 0.0	 0.0	 0.0	 0.0	 0.0; % PEL
	248	 0.5	 1.0	 2.0	 0.0	 0.976	 100.0	 0	 1.0	 0.0	 0.0	 0.0	 0.0	 0.0	 0.0	 0.0	 0.0	 0.0	 0.0	 0.0	 0.0; % PEL
	248	 15.5	 0.0	 10.0	 -10.0	 0.976	 100.0	 0	 31.0	 0.0	 0.0	 0.0	 0.0	 0.0	 0.0	 0.0	 0.0	 0.0	 0.0	 0.0	 0.0; % NG
	248	 15.5	 0.0	 10.0	 -10.0	 0.976	 100.0	 0	 31.0	 0.0	 0.0	 0.0	 0.0	 0.0	 0.0	 0.0	 0.0	 0.0	 0.0	 0.0	 0.0; % NG
	248	 15.5	 0.0	 10.0	 -10.0	 0.976	 100.0	 0	 31.0	 0.0	 0.0	 0.0	 0.0	 0.0	 0.0	 0.0	 0.0	 0.0	 0.0	 0.0	 0.0; % NG
	258	 13.0	 0.0	 10.0	 -10.0	 1.031	 100.0	 0	 26.0	 0.0	 0.0	 0.0	 0.0	 0.0	 0.0	 0.0	 0.0	 0.0	 0.0	 0.0	 0.0; % NG
	258	 13.0	 0.0	 10.0	 -10.0	 1.031	 100.0	 0	 26.0	 0.0	 0.0	 0.0	 0.0	 0.0	 0.0	 0.0	 0.0	 0.0	 0.0	 0.0	 0.0; % NG
	260	 15.0	 0.95	 1.0	 0.9	 1.071	 100.0	 1	 30.0	 0.0	 0.0	 0.0	 0.0	 0.0	 0.0	 0.0	 0.0	 0.0	 0.0	 0.0	 0.0; % COW
	263	 4.0	 0.0	 4.0	 -4.0	 0.998	 100.0	 1	 8.0	 0.0	 0.0	 0.0	 0.0	 0.0	 0.0	 0.0	 0.0	 0.0	 0.0	 0.0	 0.0; % COW
	271	 6.3	 0.0	 0.0	 0.0	 0.997	 100.0	 0	 12.6	 0.0	 0.0	 0.0	 0.0	 0.0	 0.0	 0.0	 0.0	 0.0	 0.0	 0.0	 0.0; % PEL
	284	 5.8	 -0.05	 6.1	 -6.2	 0.975	 100.0	 0	 11.6	 0.0	 0.0	 0.0	 0.0	 0.0	 0.0	 0.0	 0.0	 0.0	 0.0	 0.0	 0.0; % NG
	297	 12.65	 0.0	 0.0	 0.0	 1.064	 100.0	 0	 25.3	 0.0	 0.0	 0.0	 0.0	 0.0	 0.0	 0.0	 0.0	 0.0	 0.0	 0.0	 0.0; % NG
	298	 6.0	 0.0	 0.0	 0.0	 1.014	 100.0	 0	 12.0	 0.0	 0.0	 0.0	 0.0	 0.0	 0.0	 0.0	 0.0	 0.0	 0.0	 0.0	 0.0; % NG
	307	 7.5	 0.0	 9.0	 -9.0	 1.038	 100.0	 1	 15.0	 0.0	 0.0	 0.0	 0.0	 0.0	 0.0	 0.0	 0.0	 0.0	 0.0	 0.0	 0.0; % NG
	314	 12.9	 0.0	 0.0	 0.0	 1.032	 100.0	 1	 25.8	 0.0	 0.0	 0.0	 0.0	 0.0	 0.0	 0.0	 0.0	 0.0	 0.0	 0.0	 0.0; % NG
	314	 24.8	 0.0	 0.0	 0.0	 1.032	 100.0	 1	 49.6	 0.0	 0.0	 0.0	 0.0	 0.0	 0.0	 0.0	 0.0	 0.0	 0.0	 0.0	 0.0; % NG
	319	 -3.5	 0.0	 0.0	 0.0	 1.05	 100.0	 0	 0.0	 -7.0	 0.0	 0.0	 0.0	 0.0	 0.0	 0.0	 0.0	 0.0	 0.0	 0.0	 0.0; % SYNC
	319	 -3.5	 0.0	 0.0	 0.0	 1.05	 100.0	 0	 0.0	 -7.0	 0.0	 0.0	 0.0	 0.0	 0.0	 0.0	 0.0	 0.0	 0.0	 0.0	 0.0; % SYNC
	321	 5.4	 0.0	 0.1	 -0.1	 1.042	 100.0	 1	 10.8	 0.0	 0.0	 0.0	 0.0	 0.0	 0.0	 0.0	 0.0	 0.0	 0.0	 0.0	 0.0; % NG
	327	 5.5	 0.0	 4.0	 -4.0	 1.023	 100.0	 0	 11.0	 0.0	 0.0	 0.0	 0.0	 0.0	 0.0	 0.0	 0.0	 0.0	 0.0	 0.0	 0.0; % NG
	334	 12.5	 2.0	 13.0	 -9.0	 1.028	 100.0	 0	 25.0	 0.0	 0.0	 0.0	 0.0	 0.0	 0.0	 0.0	 0.0	 0.0	 0.0	 0.0	 0.0; % PEL
	335	 12.5	 2.0	 13.0	 -9.0	 1.037	 100.0	 1	 25.0	 0.0	 0.0	 0.0	 0.0	 0.0	 0.0	 0.0	 0.0	 0.0	 0.0	 0.0	 0.0; % COW
	338	 6.5	 -0.5	 5.0	 -6.0	 1.013	 100.0	 1	 13.0	 0.0	 0.0	 0.0	 0.0	 0.0	 0.0	 0.0	 0.0	 0.0	 0.0	 0.0	 0.0; % NG
	340	 10.5	 0.0	 10.0	 -10.0	 1.034	 100.0	 0	 21.0	 0.0	 0.0	 0.0	 0.0	 0.0	 0.0	 0.0	 0.0	 0.0	 0.0	 0.0	 0.0; % NG
	340	 1.0	 0.0	 0.1	 -0.1	 1.034	 100.0	 0	 2.0	 0.0	 0.0	 0.0	 0.0	 0.0	 0.0	 0.0	 0.0	 0.0	 0.0	 0.0	 0.0; % PEL
	347	 1.15	 0.0	 0.0	 0.0	 1.057	 100.0	 0	 2.3	 0.0	 0.0	 0.0	 0.0	 0.0	 0.0	 0.0	 0.0	 0.0	 0.0	 0.0	 0.0; % PEL
	347	 9.75	 0.0	 0.0	 0.0	 1.057	 100.0	 1	 19.5	 0.0	 0.0	 0.0	 0.0	 0.0	 0.0	 0.0	 0.0	 0.0	 0.0	 0.0	 0.0; % PEL
	350	 11.0	 0.0	 0.0	 0.0	 1.058	 100.0	 0	 22.0	 0.0	 0.0	 0.0	 0.0	 0.0	 0.0	 0.0	 0.0	 0.0	 0.0	 0.0	 0.0; % PEL
	358	 15.0	 0.0	 30.0	 -30.0	 1.027	 100.0	 0	 30.0	 0.0	 0.0	 0.0	 0.0	 0.0	 0.0	 0.0	 0.0	 0.0	 0.0	 0.0	 0.0; % NG
	359	 6.0	 0.0	 0.0	 0.0	 1.001	 100.0	 1	 12.0	 0.0	 0.0	 0.0	 0.0	 0.0	 0.0	 0.0	 0.0	 0.0	 0.0	 0.0	 0.0; % COW
	359	 6.0	 0.0	 0.0	 0.0	 1.001	 100.0	 1	 12.0	 0.0	 0.0	 0.0	 0.0	 0.0	 0.0	 0.0	 0.0	 0.0	 0.0	 0.0	 0.0; % NG
	366	 65.0	 16.5	 59.0	 -26.0	 1.078	 100.0	 1	 130.0	 0.0	 0.0	 0.0	 0.0	 0.0	 0.0	 0.0	 0.0	 0.0	 0.0	 0.0	 0.0; % COW
	393	 1.35	 0.0	 0.0	 0.0	 1.006	 100.0	 0	 2.7	 0.0	 0.0	 0.0	 0.0	 0.0	 0.0	 0.0	 0.0	 0.0	 0.0	 0.0	 0.0; % PEL
	412	 5.0	 0.0	 0.0	 0.0	 1.026	 100.0	 1	 10.0	 0.0	 0.0	 0.0	 0.0	 0.0	 0.0	 0.0	 0.0	 0.0	 0.0	 0.0	 0.0; % NG
	412	 5.75	 0.0	 0.0	 0.0	 1.026	 100.0	 1	 11.5	 0.0	 0.0	 0.0	 0.0	 0.0	 0.0	 0.0	 0.0	 0.0	 0.0	 0.0	 0.0; % PEL
	432	 6.0	 0.0	 0.0	 0.0	 1.047	 100.0	 0	 12.0	 0.0	 0.0	 0.0	 0.0	 0.0	 0.0	 0.0	 0.0	 0.0	 0.0	 0.0	 0.0; % NG
	441	 17.125	 -0.515	 10.96	 -11.99	 1.023	 100.0	 0	 34.25	 0.0	 0.0	 0.0	 0.0	 0.0	 0.0	 0.0	 0.0	 0.0	 0.0	 0.0	 0.0; % NG
	448	 12.5	 -0.5	 8.0	 -9.0	 0.992	 100.0	 0	 25.0	 0.0	 0.0	 0.0	 0.0	 0.0	 0.0	 0.0	 0.0	 0.0	 0.0	 0.0	 0.0; % COW
	463	 1.2	 0.0	 0.0	 0.0	 1.013	 100.0	 0	 2.4	 0.0	 0.0	 0.0	 0.0	 0.0	 0.0	 0.0	 0.0	 0.0	 0.0	 0.0	 0.0; % PEL
	463	 8.0	 0.0	 0.0	 0.0	 1.013	 100.0	 1	 16.0	 0.0	 0.0	 0.0	 0.0	 0.0	 0.0	 0.0	 0.0	 0.0	 0.0	 0.0	 0.0; % NG
	465	 14.0	 1.5	 6.0	 -3.0	 1.171	 100.0	 1	 27.0	 1.0	 0.0	 0.0	 0.0	 0.0	 0.0	 0.0	 0.0	 0.0	 0.0	 0.0	 0.0; % NG
	465	 14.0	 1.5	 6.0	 -3.0	 1.171	 100.0	 1	 27.0	 1.0	 0.0	 0.0	 0.0	 0.0	 0.0	 0.0	 0.0	 0.0	 0.0	 0.0	 0.0; % NG
	467	 24.5	 4.5	 19.0	 -10.0	 1.042	 100.0	 1	 48.0	 1.0	 0.0	 0.0	 0.0	 0.0	 0.0	 0.0	 0.0	 0.0	 0.0	 0.0	 0.0; % NG
	471	 5.0	 0.0	 6.0	 -6.0	 1.035	 100.0	 0	 10.0	 0.0	 0.0	 0.0	 0.0	 0.0	 0.0	 0.0	 0.0	 0.0	 0.0	 0.0	 0.0; % PEL
	471	 4.5	 0.0	 5.4	 -5.4	 1.035	 100.0	 0	 9.0	 0.0	 0.0	 0.0	 0.0	 0.0	 0.0	 0.0	 0.0	 0.0	 0.0	 0.0	 0.0; % NG
	480	 13.5	 0.5	 17.0	 -16.0	 0.982	 100.0	 0	 27.0	 0.0	 0.0	 0.0	 0.0	 0.0	 0.0	 0.0	 0.0	 0.0	 0.0	 0.0	 0.0; % PEL
	480	 13.5	 0.5	 17.0	 -16.0	 0.982	 100.0	 0	 27.0	 0.0	 0.0	 0.0	 0.0	 0.0	 0.0	 0.0	 0.0	 0.0	 0.0	 0.0	 0.0; % PEL
	480	 13.5	 0.5	 17.0	 -16.0	 0.982	 100.0	 0	 27.0	 0.0	 0.0	 0.0	 0.0	 0.0	 0.0	 0.0	 0.0	 0.0	 0.0	 0.0	 0.0; % NG
	492	 11.7	 -4.5	 8.0	 -17.0	 1.055	 100.0	 0	 23.4	 0.0	 0.0	 0.0	 0.0	 0.0	 0.0	 0.0	 0.0	 0.0	 0.0	 0.0	 0.0; % PEL
	509	 2.0	 0.0	 2.0	 -2.0	 1.002	 100.0	 0	 4.0	 0.0	 0.0	 0.0	 0.0	 0.0	 0.0	 0.0	 0.0	 0.0	 0.0	 0.0	 0.0; % PEL
	518	 5.0	 0.0	 0.0	 0.0	 1.0	 100.0	 0	 10.0	 0.0	 0.0	 0.0	 0.0	 0.0	 0.0	 0.0	 0.0	 0.0	 0.0	 0.0	 0.0; % PEL
	519	 6.0	 0.0	 0.0	 0.0	 1.035	 100.0	 1	 12.0	 0.0	 0.0	 0.0	 0.0	 0.0	 0.0	 0.0	 0.0	 0.0	 0.0	 0.0	 0.0; % COW
	529	 4.0	 0.0	 4.8	 -4.8	 1.017	 100.0	 0	 8.0	 0.0	 0.0	 0.0	 0.0	 0.0	 0.0	 0.0	 0.0	 0.0	 0.0	 0.0	 0.0; % PEL
	529	 4.0	 0.0	 4.8	 -4.8	 1.017	 100.0	 0	 8.0	 0.0	 0.0	 0.0	 0.0	 0.0	 0.0	 0.0	 0.0	 0.0	 0.0	 0.0	 0.0; % COW
	529	 4.0	 0.0	 4.8	 -4.8	 1.017	 100.0	 1	 8.0	 0.0	 0.0	 0.0	 0.0	 0.0	 0.0	 0.0	 0.0	 0.0	 0.0	 0.0	 0.0; % COW
	535	 6.0	 0.0	 0.0	 0.0	 1.014	 100.0	 1	 12.0	 0.0	 0.0	 0.0	 0.0	 0.0	 0.0	 0.0	 0.0	 0.0	 0.0	 0.0	 0.0; % NG
	535	 12.0	 0.0	 0.0	 0.0	 1.014	 100.0	 1	 24.0	 0.0	 0.0	 0.0	 0.0	 0.0	 0.0	 0.0	 0.0	 0.0	 0.0	 0.0	 0.0; % PEL
	544	 4.5	 1.95	 2.0	 1.9	 1.0	 100.0	 1	 9.0	 0.0	 0.0	 0.0	 0.0	 0.0	 0.0	 0.0	 0.0	 0.0	 0.0	 0.0	 0.0; % COW
	547	 6.0	 1.0	 2.0	 0.0	 0.984	 100.0	 0	 12.0	 0.0	 0.0	 0.0	 0.0	 0.0	 0.0	 0.0	 0.0	 0.0	 0.0	 0.0	 0.0; % NG
	569	 6.0	 0.0	 0.0	 0.0	 1.006	 100.0	 1	 12.0	 0.0	 0.0	 0.0	 0.0	 0.0	 0.0	 0.0	 0.0	 0.0	 0.0	 0.0	 0.0; % PEL
	569	 15.0	 0.0	 0.0	 0.0	 1.006	 100.0	 1	 30.0	 0.0	 0.0	 0.0	 0.0	 0.0	 0.0	 0.0	 0.0	 0.0	 0.0	 0.0	 0.0; % NG
	569	 5.75	 0.0	 0.0	 0.0	 1.006	 100.0	 1	 11.5	 0.0	 0.0	 0.0	 0.0	 0.0	 0.0	 0.0	 0.0	 0.0	 0.0	 0.0	 0.0; % NG
	582	 8.0	 1.5	 7.0	 -4.0	 1.029	 100.0	 1	 16.0	 0.0	 0.0	 0.0	 0.0	 0.0	 0.0	 0.0	 0.0	 0.0	 0.0	 0.0	 0.0; % NG
	584	 4.5	 0.0	 0.0	 0.0	 0.993	 100.0	 1	 9.0	 0.0	 0.0	 0.0	 0.0	 0.0	 0.0	 0.0	 0.0	 0.0	 0.0	 0.0	 0.0; % NG
	585	 4.75	 0.0	 5.7	 -5.7	 1.01	 100.0	 1	 9.5	 0.0	 0.0	 0.0	 0.0	 0.0	 0.0	 0.0	 0.0	 0.0	 0.0	 0.0	 0.0; % NG
	588	 0.5	 0.0	 0.1	 -0.1	 1.029	 100.0	 0	 1.0	 0.0	 0.0	 0.0	 0.0	 0.0	 0.0	 0.0	 0.0	 0.0	 0.0	 0.0	 0.0; % PEL
	592	 10.5	 0.0	 10.0	 -10.0	 1.012	 100.0	 0	 21.0	 0.0	 0.0	 0.0	 0.0	 0.0	 0.0	 0.0	 0.0	 0.0	 0.0	 0.0	 0.0; % NG
	599	 3.05	 0.0	 1.0	 -1.0	 1.026	 100.0	 0	 6.1	 0.0	 0.0	 0.0	 0.0	 0.0	 0.0	 0.0	 0.0	 0.0	 0.0	 0.0	 0.0; % NG
	609	 22.5	 0.0	 45.0	 -45.0	 1.02	 100.0	 1	 45.0	 0.0	 0.0	 0.0	 0.0	 0.0	 0.0	 0.0	 0.0	 0.0	 0.0	 0.0	 0.0; % PEL
	609	 22.5	 0.0	 45.0	 -45.0	 1.02	 100.0	 0	 45.0	 0.0	 0.0	 0.0	 0.0	 0.0	 0.0	 0.0	 0.0	 0.0	 0.0	 0.0	 0.0; % NG
	611	 6.0	 0.0	 0.0	 0.0	 1.01	 100.0	 1	 12.0	 0.0	 0.0	 0.0	 0.0	 0.0	 0.0	 0.0	 0.0	 0.0	 0.0	 0.0	 0.0; % NG
	611	 6.0	 0.0	 0.0	 0.0	 1.01	 100.0	 1	 12.0	 0.0	 0.0	 0.0	 0.0	 0.0	 0.0	 0.0	 0.0	 0.0	 0.0	 0.0	 0.0; % COW
	611	 6.0	 0.0	 0.0	 0.0	 1.01	 100.0	 1	 12.0	 0.0	 0.0	 0.0	 0.0	 0.0	 0.0	 0.0	 0.0	 0.0	 0.0	 0.0	 0.0; % NG
	612	 17.5	 0.0	 0.0	 0.0	 1.012	 100.0	 1	 35.0	 0.0	 0.0	 0.0	 0.0	 0.0	 0.0	 0.0	 0.0	 0.0	 0.0	 0.0	 0.0; % NG
	612	 5.75	 0.0	 0.0	 0.0	 1.012	 100.0	 0	 11.5	 0.0	 0.0	 0.0	 0.0	 0.0	 0.0	 0.0	 0.0	 0.0	 0.0	 0.0	 0.0; % NG
	623	 0.0	 0.0	 8.3	 -8.3	 1.049	 100.0	 1	 8.3	 -8.3	 0.0	 0.0	 0.0	 0.0	 0.0	 0.0	 0.0	 0.0	 0.0	 0.0	 0.0; % COW
	632	 3.65	 0.0	 4.0	 -4.0	 1.026	 100.0	 0	 7.3	 0.0	 0.0	 0.0	 0.0	 0.0	 0.0	 0.0	 0.0	 0.0	 0.0	 0.0	 0.0; % NG
	635	 7.5	 3.5	 7.0	 0.0	 1.011	 100.0	 0	 15.0	 0.0	 0.0	 0.0	 0.0	 0.0	 0.0	 0.0	 0.0	 0.0	 0.0	 0.0	 0.0; % NG
	635	 7.5	 3.5	 7.0	 0.0	 1.011	 100.0	 1	 15.0	 0.0	 0.0	 0.0	 0.0	 0.0	 0.0	 0.0	 0.0	 0.0	 0.0	 0.0	 0.0; % PEL
	640	 119.5	 -11.4	 80.0	 -102.8	 1.083	 100.0	 1	 239.0	 0.0	 0.0	 0.0	 0.0	 0.0	 0.0	 0.0	 0.0	 0.0	 0.0	 0.0	 0.0; % NG
	651	 3.5	 3.5	 7.0	 0.0	 1.064	 100.0	 0	 7.0	 0.0	 0.0	 0.0	 0.0	 0.0	 0.0	 0.0	 0.0	 0.0	 0.0	 0.0	 0.0; % NG
	669	 6.0	 0.0	 0.0	 0.0	 1.033	 100.0	 1	 12.0	 0.0	 0.0	 0.0	 0.0	 0.0	 0.0	 0.0	 0.0	 0.0	 0.0	 0.0	 0.0; % NG
	669	 6.0	 0.0	 0.0	 0.0	 1.033	 100.0	 1	 12.0	 0.0	 0.0	 0.0	 0.0	 0.0	 0.0	 0.0	 0.0	 0.0	 0.0	 0.0	 0.0; % NG
	670	 3.75	 0.0	 0.0	 0.0	 1.053	 100.0	 1	 7.5	 0.0	 0.0	 0.0	 0.0	 0.0	 0.0	 0.0	 0.0	 0.0	 0.0	 0.0	 0.0; % NG
	670	 12.0	 0.0	 0.0	 0.0	 1.053	 100.0	 1	 24.0	 0.0	 0.0	 0.0	 0.0	 0.0	 0.0	 0.0	 0.0	 0.0	 0.0	 0.0	 0.0; % NG
	678	 3.3	 0.0	 0.0	 0.0	 1.011	 100.0	 0	 6.6	 0.0	 0.0	 0.0	 0.0	 0.0	 0.0	 0.0	 0.0	 0.0	 0.0	 0.0	 0.0; % PEL
	679	 6.0	 0.0	 0.0	 0.0	 1.059	 100.0	 1	 12.0	 0.0	 0.0	 0.0	 0.0	 0.0	 0.0	 0.0	 0.0	 0.0	 0.0	 0.0	 0.0; % NG
	683	 4.5	 0.5	 6.0	 -5.0	 0.89	 100.0	 1	 9.0	 0.0	 0.0	 0.0	 0.0	 0.0	 0.0	 0.0	 0.0	 0.0	 0.0	 0.0	 0.0; % NG
	683	 4.5	 0.5	 6.0	 -5.0	 0.89	 100.0	 1	 9.0	 0.0	 0.0	 0.0	 0.0	 0.0	 0.0	 0.0	 0.0	 0.0	 0.0	 0.0	 0.0; % NG
	683	 5.5	 1.5	 8.0	 -5.0	 0.89	 100.0	 0	 11.0	 0.0	 0.0	 0.0	 0.0	 0.0	 0.0	 0.0	 0.0	 0.0	 0.0	 0.0	 0.0; % COW
	683	 5.5	 1.5	 8.0	 -5.0	 0.89	 100.0	 1	 11.0	 0.0	 0.0	 0.0	 0.0	 0.0	 0.0	 0.0	 0.0	 0.0	 0.0	 0.0	 0.0; % NG
	694	 16.175	 0.0	 0.0	 0.0	 1.055	 100.0	 1	 32.35	 0.0	 0.0	 0.0	 0.0	 0.0	 0.0	 0.0	 0.0	 0.0	 0.0	 0.0	 0.0; % NG
	694	 6.0	 0.0	 0.0	 0.0	 1.055	 100.0	 1	 12.0	 0.0	 0.0	 0.0	 0.0	 0.0	 0.0	 0.0	 0.0	 0.0	 0.0	 0.0	 0.0; % PEL
	694	 10.5	 0.0	 0.0	 0.0	 1.055	 100.0	 1	 21.0	 0.0	 0.0	 0.0	 0.0	 0.0	 0.0	 0.0	 0.0	 0.0	 0.0	 0.0	 0.0; % NG
	698	 18.5	 -1.0	 15.0	 -17.0	 1.02	 100.0	 1	 37.0	 0.0	 0.0	 0.0	 0.0	 0.0	 0.0	 0.0	 0.0	 0.0	 0.0	 0.0	 0.0; % PEL
	698	 18.5	 -1.0	 15.0	 -17.0	 1.02	 100.0	 1	 37.0	 0.0	 0.0	 0.0	 0.0	 0.0	 0.0	 0.0	 0.0	 0.0	 0.0	 0.0	 0.0; % NG
	697	 18.5	 0.0	 15.0	 -15.0	 1.02	 100.0	 1	 37.0	 0.0	 0.0	 0.0	 0.0	 0.0	 0.0	 0.0	 0.0	 0.0	 0.0	 0.0	 0.0; % NG
	697	 18.5	 0.0	 15.0	 -15.0	 1.02	 100.0	 1	 37.0	 0.0	 0.0	 0.0	 0.0	 0.0	 0.0	 0.0	 0.0	 0.0	 0.0	 0.0	 0.0; % PEL
	696	 18.5	 -1.0	 15.0	 -17.0	 1.023	 100.0	 1	 37.0	 0.0	 0.0	 0.0	 0.0	 0.0	 0.0	 0.0	 0.0	 0.0	 0.0	 0.0	 0.0; % PEL
	696	 18.5	 -1.0	 15.0	 -17.0	 1.023	 100.0	 1	 37.0	 0.0	 0.0	 0.0	 0.0	 0.0	 0.0	 0.0	 0.0	 0.0	 0.0	 0.0	 0.0; % NG
	704	 2.0	 0.0	 2.0	 -2.0	 0.896	 100.0	 1	 4.0	 0.0	 0.0	 0.0	 0.0	 0.0	 0.0	 0.0	 0.0	 0.0	 0.0	 0.0	 0.0; % PEL
	704	 2.0	 0.0	 2.5	 -2.5	 0.896	 100.0	 1	 4.0	 0.0	 0.0	 0.0	 0.0	 0.0	 0.0	 0.0	 0.0	 0.0	 0.0	 0.0	 0.0; % NG
	704	 2.85	 0.0	 3.0	 -3.0	 0.896	 100.0	 1	 5.7	 0.0	 0.0	 0.0	 0.0	 0.0	 0.0	 0.0	 0.0	 0.0	 0.0	 0.0	 0.0; % NG
	704	 4.25	 0.5	 6.0	 -5.0	 0.896	 100.0	 0	 8.5	 0.0	 0.0	 0.0	 0.0	 0.0	 0.0	 0.0	 0.0	 0.0	 0.0	 0.0	 0.0; % COW
	731	 9.75	 0.0	 0.0	 0.0	 1.044	 100.0	 1	 19.5	 0.0	 0.0	 0.0	 0.0	 0.0	 0.0	 0.0	 0.0	 0.0	 0.0	 0.0	 0.0; % NG
	732	 19.5	 0.0	 18.0	 -18.0	 0.977	 100.0	 1	 39.0	 0.0	 0.0	 0.0	 0.0	 0.0	 0.0	 0.0	 0.0	 0.0	 0.0	 0.0	 0.0; % NG
	733	 5.75	 0.0	 0.0	 0.0	 1.004	 100.0	 1	 11.5	 0.0	 0.0	 0.0	 0.0	 0.0	 0.0	 0.0	 0.0	 0.0	 0.0	 0.0	 0.0; % NG
	733	 16.0	 0.0	 0.0	 0.0	 1.004	 100.0	 1	 32.0	 0.0	 0.0	 0.0	 0.0	 0.0	 0.0	 0.0	 0.0	 0.0	 0.0	 0.0	 0.0; % PEL
	735	 6.0	 0.0	 0.0	 0.0	 1.051	 100.0	 0	 12.0	 0.0	 0.0	 0.0	 0.0	 0.0	 0.0	 0.0	 0.0	 0.0	 0.0	 0.0	 0.0; % NG
	735	 16.0	 0.0	 0.0	 0.0	 1.051	 100.0	 1	 32.0	 0.0	 0.0	 0.0	 0.0	 0.0	 0.0	 0.0	 0.0	 0.0	 0.0	 0.0	 0.0; % NG
	736	 2.5	 0.0	 0.1	 -0.1	 1.032	 100.0	 1	 5.0	 0.0	 0.0	 0.0	 0.0	 0.0	 0.0	 0.0	 0.0	 0.0	 0.0	 0.0	 0.0; % NG
	743	 3.35	 0.01	 3.72	 -3.7	 0.983	 100.0	 1	 6.7	 0.0	 0.0	 0.0	 0.0	 0.0	 0.0	 0.0	 0.0	 0.0	 0.0	 0.0	 0.0; % NG
	743	 2.8	 0.0	 3.0	 -3.0	 0.983	 100.0	 1	 5.6	 0.0	 0.0	 0.0	 0.0	 0.0	 0.0	 0.0	 0.0	 0.0	 0.0	 0.0	 0.0; % NG
	744	 13.3	 -2.38	 15.0	 -19.76	 0.975	 100.0	 1	 26.6	 0.0	 0.0	 0.0	 0.0	 0.0	 0.0	 0.0	 0.0	 0.0	 0.0	 0.0	 0.0; % NG
	745	 4.0	 0.0	 2.0	 -2.0	 1.011	 100.0	 1	 7.0	 1.0	 0.0	 0.0	 0.0	 0.0	 0.0	 0.0	 0.0	 0.0	 0.0	 0.0	 0.0; % NG
	750	 0.0	 0.0	 3.0	 -3.0	 0.975	 100.0	 0	 5.0	 -5.0	 0.0	 0.0	 0.0	 0.0	 0.0	 0.0	 0.0	 0.0	 0.0	 0.0	 0.0; % NG
	757	 11.75	 0.0	 8.0	 -8.0	 1.068	 100.0	 0	 23.5	 0.0	 0.0	 0.0	 0.0	 0.0	 0.0	 0.0	 0.0	 0.0	 0.0	 0.0	 0.0; % PEL
	759	 3.0	 0.0	 0.0	 0.0	 1.037	 100.0	 0	 6.0	 0.0	 0.0	 0.0	 0.0	 0.0	 0.0	 0.0	 0.0	 0.0	 0.0	 0.0	 0.0; % PEL
	760	 3.0	 0.0	 0.0	 0.0	 1.035	 100.0	 0	 6.0	 0.0	 0.0	 0.0	 0.0	 0.0	 0.0	 0.0	 0.0	 0.0	 0.0	 0.0	 0.0; % PEL
	759	 18.75	 2.0	 10.0	 -6.0	 1.037	 100.0	 1	 37.5	 0.0	 0.0	 0.0	 0.0	 0.0	 0.0	 0.0	 0.0	 0.0	 0.0	 0.0	 0.0; % NG
	760	 18.75	 2.0	 10.0	 -6.0	 1.035	 100.0	 1	 37.5	 0.0	 0.0	 0.0	 0.0	 0.0	 0.0	 0.0	 0.0	 0.0	 0.0	 0.0	 0.0; % NG
	761	 0.3	 0.0	 0.06	 -0.06	 0.596	 100.0	 0	 0.6	 0.0	 0.0	 0.0	 0.0	 0.0	 0.0	 0.0	 0.0	 0.0	 0.0	 0.0	 0.0; % PEL
	761	 13.05	 0.0	 2.61	 -2.61	 0.596	 100.0	 1	 26.1	 0.0	 0.0	 0.0	 0.0	 0.0	 0.0	 0.0	 0.0	 0.0	 0.0	 0.0	 0.0; % NG
	761	 0.8	 0.0	 0.16	 -0.16	 0.596	 100.0	 0	 1.6	 0.0	 0.0	 0.0	 0.0	 0.0	 0.0	 0.0	 0.0	 0.0	 0.0	 0.0	 0.0; % PEL
	761	 0.55	 0.0	 0.11	 -0.11	 0.596	 100.0	 0	 1.1	 0.0	 0.0	 0.0	 0.0	 0.0	 0.0	 0.0	 0.0	 0.0	 0.0	 0.0	 0.0; % PEL
	765	 18.75	 0.0	 0.0	 0.0	 1.02	 100.0	 0	 37.5	 0.0	 0.0	 0.0	 0.0	 0.0	 0.0	 0.0	 0.0	 0.0	 0.0	 0.0	 0.0; % PEL
	765	 17.0	 0.0	 0.0	 0.0	 1.02	 100.0	 1	 34.0	 0.0	 0.0	 0.0	 0.0	 0.0	 0.0	 0.0	 0.0	 0.0	 0.0	 0.0	 0.0; % NG
	785	 4.0	 0.0	 26.0	 -26.0	 1.004	 100.0	 0	 8.0	 0.0	 0.0	 0.0	 0.0	 0.0	 0.0	 0.0	 0.0	 0.0	 0.0	 0.0	 0.0; % NG
	785	 7.5	 0.0	 26.0	 -26.0	 1.004	 100.0	 0	 15.0	 0.0	 0.0	 0.0	 0.0	 0.0	 0.0	 0.0	 0.0	 0.0	 0.0	 0.0	 0.0; % COW
	786	 9.5	 0.0	 26.0	 -26.0	 1.009	 100.0	 0	 19.0	 0.0	 0.0	 0.0	 0.0	 0.0	 0.0	 0.0	 0.0	 0.0	 0.0	 0.0	 0.0; % PEL
	800	 15.5	 -1.0	 15.0	 -17.0	 1.02	 100.0	 1	 31.0	 0.0	 0.0	 0.0	 0.0	 0.0	 0.0	 0.0	 0.0	 0.0	 0.0	 0.0	 0.0; % NG
	800	 15.5	 -1.0	 15.0	 -17.0	 1.02	 100.0	 1	 31.0	 0.0	 0.0	 0.0	 0.0	 0.0	 0.0	 0.0	 0.0	 0.0	 0.0	 0.0	 0.0; % NG
	801	 15.5	 -1.0	 15.0	 -17.0	 1.022	 100.0	 1	 31.0	 0.0	 0.0	 0.0	 0.0	 0.0	 0.0	 0.0	 0.0	 0.0	 0.0	 0.0	 0.0; % NG
	801	 15.5	 -1.0	 15.0	 -17.0	 1.022	 100.0	 1	 31.0	 0.0	 0.0	 0.0	 0.0	 0.0	 0.0	 0.0	 0.0	 0.0	 0.0	 0.0	 0.0; % NG
	802	 15.5	 -1.0	 15.0	 -17.0	 1.021	 100.0	 1	 31.0	 0.0	 0.0	 0.0	 0.0	 0.0	 0.0	 0.0	 0.0	 0.0	 0.0	 0.0	 0.0; % PEL
	802	 15.5	 -1.0	 15.0	 -17.0	 1.021	 100.0	 1	 31.0	 0.0	 0.0	 0.0	 0.0	 0.0	 0.0	 0.0	 0.0	 0.0	 0.0	 0.0	 0.0; % NG
	806	 20.4	 0.0	 0.0	 0.0	 1.008	 100.0	 1	 40.8	 0.0	 0.0	 0.0	 0.0	 0.0	 0.0	 0.0	 0.0	 0.0	 0.0	 0.0	 0.0; % NG
	814	 16.5	 -1.5	 6.0	 -9.0	 1.023	 100.0	 1	 32.0	 1.0	 0.0	 0.0	 0.0	 0.0	 0.0	 0.0	 0.0	 0.0	 0.0	 0.0	 0.0; % PEL
	814	 16.5	 -1.5	 6.0	 -9.0	 1.023	 100.0	 0	 32.0	 1.0	 0.0	 0.0	 0.0	 0.0	 0.0	 0.0	 0.0	 0.0	 0.0	 0.0	 0.0; % PEL
	815	 16.5	 -1.5	 6.0	 -9.0	 1.024	 100.0	 1	 32.0	 1.0	 0.0	 0.0	 0.0	 0.0	 0.0	 0.0	 0.0	 0.0	 0.0	 0.0	 0.0; % NG
	815	 16.5	 -1.5	 6.0	 -9.0	 1.024	 100.0	 1	 32.0	 1.0	 0.0	 0.0	 0.0	 0.0	 0.0	 0.0	 0.0	 0.0	 0.0	 0.0	 0.0; % NG
	815	 16.5	 -1.5	 6.0	 -9.0	 1.024	 100.0	 1	 32.0	 1.0	 0.0	 0.0	 0.0	 0.0	 0.0	 0.0	 0.0	 0.0	 0.0	 0.0	 0.0; % NG
	815	 16.5	 -1.5	 6.0	 -9.0	 1.024	 100.0	 1	 32.0	 1.0	 0.0	 0.0	 0.0	 0.0	 0.0	 0.0	 0.0	 0.0	 0.0	 0.0	 0.0; % COW
	825	 6.5	 0.0	 3.0	 -3.0	 1.042	 100.0	 0	 13.0	 0.0	 0.0	 0.0	 0.0	 0.0	 0.0	 0.0	 0.0	 0.0	 0.0	 0.0	 0.0; % NG
	825	 3.5	 0.0	 3.0	 -3.0	 1.042	 100.0	 1	 7.0	 0.0	 0.0	 0.0	 0.0	 0.0	 0.0	 0.0	 0.0	 0.0	 0.0	 0.0	 0.0; % NG
	828	 1.2	 0.0	 0.0	 0.0	 1.059	 100.0	 0	 2.4	 0.0	 0.0	 0.0	 0.0	 0.0	 0.0	 0.0	 0.0	 0.0	 0.0	 0.0	 0.0; % PEL
	829	 13.5	 0.0	 10.0	 -10.0	 1.032	 100.0	 1	 27.0	 0.0	 0.0	 0.0	 0.0	 0.0	 0.0	 0.0	 0.0	 0.0	 0.0	 0.0	 0.0; % NG
	830	 10.0	 0.0	 10.0	 -10.0	 0.937	 100.0	 0	 20.0	 0.0	 0.0	 0.0	 0.0	 0.0	 0.0	 0.0	 0.0	 0.0	 0.0	 0.0	 0.0; % COW
	832	 4.9	 -0.145	 3.14	 -3.43	 1.053	 100.0	 0	 9.8	 0.0	 0.0	 0.0	 0.0	 0.0	 0.0	 0.0	 0.0	 0.0	 0.0	 0.0	 0.0; % NG
...
];

%% generator cost data
%	2	startup	shutdown	n	c(n-1)	...	c0
mpc.gencost = [
	2	 0.0	 0.0	 3	   0.000000	  34.753799	   0.000000; % COW
	2	 0.0	 0.0	 3	   0.000000	  39.888813	   0.000000; % NG
	2	 0.0	 0.0	 3	   0.000000	  54.621531	   0.000000; % NG
	2	 0.0	 0.0	 3	   0.000000	 161.222127	   0.000000; % PEL
	2	 0.0	 0.0	 3	   0.000000	 134.483434	   0.000000; % PEL
	2	 0.0	 0.0	 3	   0.000000	  17.451969	   0.000000; % COW
	2	 0.0	 0.0	 3	   0.000000	 148.470857	   0.000000; % PEL
	2	 0.0	 0.0	 3	   0.000000	 104.569921	   0.000000; % PEL
	2	 0.0	 0.0	 3	   0.000000	  45.977896	   0.000000; % NG
	2	 0.0	 0.0	 3	   0.000000	 156.107168	   0.000000; % PEL
	2	 0.0	 0.0	 3	   0.000000	 111.366862	   0.000000; % PEL
	2	 0.0	 0.0	 3	   0.000000	  45.280109	   0.000000; % NG
	2	 0.0	 0.0	 3	   0.000000	  19.871785	   0.000000; % COW
	2	 0.0	 0.0	 3	   0.000000	  64.195726	   0.000000; % NG
	2	 0.0	 0.0	 3	   0.000000	  53.685120	   0.000000; % NG
	2	 0.0	 0.0	 3	   0.000000	  35.792601	   0.000000; % NG
	2	 0.0	 0.0	 3	   0.000000	  31.788894	   0.000000; % COW
	2	 0.0	 0.0	 3	   0.000000	  50.769053	   0.000000; % NG
	2	 0.0	 0.0	 3	   0.000000	 145.428155	   0.000000; % PEL
	2	 0.0	 0.0	 3	   0.000000	  33.573724	   0.000000; % NG
	2	 0.0	 0.0	 3	   0.000000	  50.024730	   0.000000; % NG
	2	 0.0	 0.0	 3	   0.000000	 111.333640	   0.000000; % PEL
	2	 0.0	 0.0	 3	   0.000000	  36.271781	   0.000000; % NG
	2	 0.0	 0.0	 3	   0.000000	  41.479460	   0.000000; % NG
	2	 0.0	 0.0	 3	   0.000000	  37.715581	   0.000000; % NG
	2	 0.0	 0.0	 3	   0.000000	  27.923303	   0.000000; % COW
	2	 0.0	 0.0	 3	   0.000000	 128.582730	   0.000000; % PEL
	2	 0.0	 0.0	 3	   0.000000	  58.553351	   0.000000; % NG
	2	 0.0	 0.0	 3	   0.000000	 141.658513	   0.000000; % PEL
	2	 0.0	 0.0	 3	   0.000000	  47.517439	   0.000000; % NG
	2	 0.0	 0.0	 3	   0.000000	  30.911076	   0.000000; % NG
	2	 0.0	 0.0	 3	   0.000000	  19.045718	   0.000000; % COW
	2	 0.0	 0.0	 3	   0.000000	  26.008205	   0.000000; % COW
	2	 0.0	 0.0	 3	   0.000000	  62.567239	   0.000000; % NG
	2	 0.0	 0.0	 3	   0.000000	 144.511280	   0.000000; % PEL
	2	 0.0	 0.0	 3	   0.000000	  48.811190	   0.000000; % NG
	2	 0.0	 0.0	 3	   0.000000	  31.757407	   0.000000; % NG
	2	 0.0	 0.0	 3	   0.000000	  81.131509	   0.000000; % PEL
	2	 0.0	 0.0	 3	   0.000000	  49.437965	   0.000000; % NG
	2	 0.0	 0.0	 3	   0.000000	 151.986130	   0.000000; % PEL
	2	 0.0	 0.0	 3	   0.000000	  43.912645	   0.000000; % NG
	2	 0.0	 0.0	 3	   0.000000	  43.538806	   0.000000; % NG
	2	 0.0	 0.0	 3	   0.000000	  89.094341	   0.000000; % PEL
	2	 0.0	 0.0	 3	   0.000000	  51.931522	   0.000000; % NG
	2	 0.0	 0.0	 3	   0.000000	 148.917597	   0.000000; % PEL
	2	 0.0	 0.0	 3	   0.000000	 145.810972	   0.000000; % PEL
	2	 0.0	 0.0	 3	   0.000000	 166.016334	   0.000000; % PEL
	2	 0.0	 0.0	 3	   0.000000	  37.239999	   0.000000; % NG
	2	 0.0	 0.0	 3	   0.000000	  39.307601	   0.000000; % NG
	2	 0.0	 0.0	 3	   0.000000	 134.047978	   0.000000; % PEL
	2	 0.0	 0.0	 3	   0.000000	  41.146685	   0.000000; % NG
	2	 0.0	 0.0	 3	   0.000000	 131.812495	   0.000000; % PEL
	2	 0.0	 0.0	 3	   0.000000	 107.521650	   0.000000; % PEL
	2	 0.0	 0.0	 3	   0.000000	  46.293740	   0.000000; % NG
	2	 0.0	 0.0	 3	   0.000000	  37.556094	   0.000000; % NG
	2	 0.0	 0.0	 3	   0.000000	  69.942409	   0.000000; % NG
	2	 0.0	 0.0	 3	   0.000000	  54.761508	   0.000000; % NG
	2	 0.0	 0.0	 3	   0.000000	  47.752802	   0.000000; % NG
	2	 0.0	 0.0	 3	   0.000000	   4.084164	   0.000000; % COW
	2	 0.0	 0.0	 3	   0.000000	  24.737714	   0.000000; % COW
	2	 0.0	 0.0	 3	   0.000000	 161.710653	   0.000000; % PEL
	2	 0.0	 0.0	 3	   0.000000	  55.107656	   0.000000; % NG
	2	 0.0	 0.0	 3	   0.000000	  28.414144	   0.000000; % NG
	2	 0.0	 0.0	 3	   0.000000	  41.467500	   0.000000; % NG
	2	 0.0	 0.0	 3	   0.000000	  49.639266	   0.000000; % NG
	2	 0.0	 0.0	 3	   0.000000	  46.195487	   0.000000; % NG
	2	 0.0	 0.0	 3	   0.000000	  49.683598	   0.000000; % NG
	2	 0.0	 0.0	 3	   0.000000	   0.000000	   0.000000; % SYNC
	2	 0.0	 0.0	 3	   0.000000	   0.000000	   0.000000; % SYNC
	2	 0.0	 0.0	 3	   0.000000	  49.125297	   0.000000; % NG
	2	 0.0	 0.0	 3	   0.000000	  45.403848	   0.000000; % NG
	2	 0.0	 0.0	 3	   0.000000	 132.538152	   0.000000; % PEL
	2	 0.0	 0.0	 3	   0.000000	  24.643624	   0.000000; % COW
	2	 0.0	 0.0	 3	   0.000000	  37.181494	   0.000000; % NG
	2	 0.0	 0.0	 3	   0.000000	  32.776544	   0.000000; % NG
	2	 0.0	 0.0	 3	   0.000000	 154.544908	   0.000000; % PEL
	2	 0.0	 0.0	 3	   0.000000	 123.516288	   0.000000; % PEL
	2	 0.0	 0.0	 3	   0.000000	 125.533301	   0.000000; % PEL
	2	 0.0	 0.0	 3	   0.000000	 140.768559	   0.000000; % PEL
	2	 0.0	 0.0	 3	   0.000000	  44.808628	   0.000000; % NG
	2	 0.0	 0.0	 3	   0.000000	  25.212290	   0.000000; % COW
	2	 0.0	 0.0	 3	   0.000000	  36.795266	   0.000000; % NG
	2	 0.0	 0.0	 3	   0.000000	  15.186394	   0.000000; % COW
	2	 0.0	 0.0	 3	   0.000000	 143.722065	   0.000000; % PEL
	2	 0.0	 0.0	 3	   0.000000	  32.315299	   0.000000; % NG
	2	 0.0	 0.0	 3	   0.000000	 133.119323	   0.000000; % PEL
	2	 0.0	 0.0	 3	   0.000000	  46.897648	   0.000000; % NG
	2	 0.0	 0.0	 3	   0.000000	  43.584937	   0.000000; % NG
	2	 0.0	 0.0	 3	   0.000000	  19.051080	   0.000000; % COW
	2	 0.0	 0.0	 3	   0.000000	 121.508398	   0.000000; % PEL
	2	 0.0	 0.0	 3	   0.000000	  58.346108	   0.000000; % NG
	2	 0.0	 0.0	 3	   0.000000	  63.254971	   0.000000; % NG
	2	 0.0	 0.0	 3	   0.000000	  48.672737	   0.000000; % NG
	2	 0.0	 0.0	 3	   0.000000	  47.072279	   0.000000; % NG
	2	 0.0	 0.0	 3	   0.000000	 107.383579	   0.000000; % PEL
	2	 0.0	 0.0	 3	   0.000000	  50.681936	   0.000000; % NG
	2	 0.0	 0.0	 3	   0.000000	 113.030932	   0.000000; % PEL
	2	 0.0	 0.0	 3	   0.000000	 170.147608	   0.000000; % PEL
	2	 0.0	 0.0	 3	   0.000000	  49.538822	   0.000000; % NG
	2	 0.0	 0.0	 3	   0.000000	 125.031275	   0.000000; % PEL
	2	 0.0	 0.0	 3	   0.000000	 125.288801	   0.000000; % PEL
	2	 0.0	 0.0	 3	   0.000000	 122.664558	   0.000000; % PEL
	2	 0.0	 0.0	 3	   0.000000	  20.568536	   0.000000; % COW
	2	 0.0	 0.0	 3	   0.000000	  99.233903	   0.000000; % PEL
	2	 0.0	 0.0	 3	   0.000000	  17.991516	   0.000000; % COW
	2	 0.0	 0.0	 3	   0.000000	  25.366204	   0.000000; % COW
	2	 0.0	 0.0	 3	   0.000000	  44.628123	   0.000000; % NG
	2	 0.0	 0.0	 3	   0.000000	 144.040251	   0.000000; % PEL
	2	 0.0	 0.0	 3	   0.000000	  41.074655	   0.000000; % COW
	2	 0.0	 0.0	 3	   0.000000	  36.157049	   0.000000; % NG
	2	 0.0	 0.0	 3	   0.000000	 147.163705	   0.000000; % PEL
	2	 0.0	 0.0	 3	   0.000000	  50.026494	   0.000000; % NG
	2	 0.0	 0.0	 3	   0.000000	  35.931413	   0.000000; % NG
	2	 0.0	 0.0	 3	   0.000000	  56.414139	   0.000000; % NG
	2	 0.0	 0.0	 3	   0.000000	  57.366209	   0.000000; % NG
	2	 0.0	 0.0	 3	   0.000000	  46.074138	   0.000000; % NG
	2	 0.0	 0.0	 3	   0.000000	 155.195767	   0.000000; % PEL
	2	 0.0	 0.0	 3	   0.000000	  40.753962	   0.000000; % NG
	2	 0.0	 0.0	 3	   0.000000	  48.518938	   0.000000; % NG
	2	 0.0	 0.0	 3	   0.000000	 120.655283	   0.000000; % PEL
	2	 0.0	 0.0	 3	   0.000000	  48.620773	   0.000000; % NG
	2	 0.0	 0.0	 3	   0.000000	  57.113219	   0.000000; % NG
	2	 0.0	 0.0	 3	   0.000000	  20.449316	   0.000000; % COW
	2	 0.0	 0.0	 3	   0.000000	  65.653487	   0.000000; % NG
	2	 0.0	 0.0	 3	   0.000000	  47.953038	   0.000000; % NG
	2	 0.0	 0.0	 3	   0.000000	  38.413520	   0.000000; % NG
	2	 0.0	 0.0	 3	   0.000000	  19.220138	   0.000000; % COW
	2	 0.0	 0.0	 3	   0.000000	  35.849086	   0.000000; % NG
	2	 0.0	 0.0	 3	   0.000000	  21.907309	   0.000000; % NG
	2	 0.0	 0.0	 3	   0.000000	 109.357322	   0.000000; % PEL
	2	 0.0	 0.0	 3	   0.000000	  50.729298	   0.000000; % NG
	2	 0.0	 0.0	 3	   0.000000	  60.513154	   0.000000; % NG
	2	 0.0	 0.0	 3	   0.000000	  58.952400	   0.000000; % NG
	2	 0.0	 0.0	 3	   0.000000	  34.148646	   0.000000; % NG
	2	 0.0	 0.0	 3	   0.000000	  51.386496	   0.000000; % NG
	2	 0.0	 0.0	 3	   0.000000	  53.642761	   0.000000; % NG
	2	 0.0	 0.0	 3	   0.000000	 157.627495	   0.000000; % PEL
	2	 0.0	 0.0	 3	   0.000000	  37.496148	   0.000000; % NG
	2	 0.0	 0.0	 3	   0.000000	  45.195392	   0.000000; % NG
	2	 0.0	 0.0	 3	   0.000000	  45.158681	   0.000000; % NG
	2	 0.0	 0.0	 3	   0.000000	  30.552651	   0.000000; % COW
	2	 0.0	 0.0	 3	   0.000000	  37.414072	   0.000000; % NG
	2	 0.0	 0.0	 3	   0.000000	  42.112820	   0.000000; % NG
	2	 0.0	 0.0	 3	   0.000000	 149.274106	   0.000000; % PEL
	2	 0.0	 0.0	 3	   0.000000	  57.532905	   0.000000; % NG
	2	 0.0	 0.0	 3	   0.000000	 153.738719	   0.000000; % PEL
	2	 0.0	 0.0	 3	   0.000000	  38.378119	   0.000000; % NG
	2	 0.0	 0.0	 3	   0.000000	  64.037963	   0.000000; % NG
	2	 0.0	 0.0	 3	   0.000000	 164.427745	   0.000000; % PEL
	2	 0.0	 0.0	 3	   0.000000	 134.108374	   0.000000; % PEL
	2	 0.0	 0.0	 3	   0.000000	  47.844826	   0.000000; % NG
	2	 0.0	 0.0	 3	   0.000000	 118.608841	   0.000000; % PEL
	2	 0.0	 0.0	 3	   0.000000	  55.135405	   0.000000; % NG
	2	 0.0	 0.0	 3	   0.000000	  43.563729	   0.000000; % NG
	2	 0.0	 0.0	 3	   0.000000	   7.896286	   0.000000; % COW
	2	 0.0	 0.0	 3	   0.000000	  40.724983	   0.000000; % NG
	2	 0.0	 0.0	 3	   0.000000	  58.150857	   0.000000; % NG
	2	 0.0	 0.0	 3	   0.000000	  40.725681	   0.000000; % NG
	2	 0.0	 0.0	 3	   0.000000	 144.554211	   0.000000; % PEL
	2	 0.0	 0.0	 3	   0.000000	  34.852628	   0.000000; % NG
	2	 0.0	 0.0	 3	   0.000000	  44.399099	   0.000000; % NG
	2	 0.0	 0.0	 3	   0.000000	  60.072235	   0.000000; % NG
	2	 0.0	 0.0	 3	   0.000000	  48.310029	   0.000000; % NG
	2	 0.0	 0.0	 3	   0.000000	  54.655329	   0.000000; % NG
	2	 0.0	 0.0	 3	   0.000000	  51.571542	   0.000000; % NG
	2	 0.0	 0.0	 3	   0.000000	  44.674692	   0.000000; % NG
	2	 0.0	 0.0	 3	   0.000000	  39.986143	   0.000000; % NG
	2	 0.0	 0.0	 3	   0.000000	 121.516181	   0.000000; % PEL
	2	 0.0	 0.0	 3	   0.000000	 129.578770	   0.000000; % PEL
	2	 0.0	 0.0	 3	   0.000000	 144.718588	   0.000000; % PEL
	2	 0.0	 0.0	 3	   0.000000	  47.613309	   0.000000; % NG
	2	 0.0	 0.0	 3	   0.000000	  41.116533	   0.000000; % NG
	2	 0.0	 0.0	 3	   0.000000	 121.860927	   0.000000; % PEL
	2	 0.0	 0.0	 3	   0.000000	  53.010319	   0.000000; % NG
	2	 0.0	 0.0	 3	   0.000000	 118.254501	   0.000000; % PEL
	2	 0.0	 0.0	 3	   0.000000	 115.028911	   0.000000; % PEL
	2	 0.0	 0.0	 3	   0.000000	 106.238161	   0.000000; % PEL
	2	 0.0	 0.0	 3	   0.000000	  41.560242	   0.000000; % NG
	2	 0.0	 0.0	 3	   0.000000	  43.882699	   0.000000; % NG
	2	 0.0	 0.0	 3	   0.000000	  18.415002	   0.000000; % COW
	2	 0.0	 0.0	 3	   0.000000	 112.165490	   0.000000; % PEL
	2	 0.0	 0.0	 3	   0.000000	  45.603965	   0.000000; % NG
	2	 0.0	 0.0	 3	   0.000000	  63.022817	   0.000000; % NG
	2	 0.0	 0.0	 3	   0.000000	  41.837255	   0.000000; % NG
	2	 0.0	 0.0	 3	   0.000000	  51.668539	   0.000000; % NG
	2	 0.0	 0.0	 3	   0.000000	 155.360081	   0.000000; % PEL
	2	 0.0	 0.0	 3	   0.000000	  52.378393	   0.000000; % NG
	2	 0.0	 0.0	 3	   0.000000	  40.327521	   0.000000; % NG
	2	 0.0	 0.0	 3	   0.000000	  95.779642	   0.000000; % PEL
	2	 0.0	 0.0	 3	   0.000000	 125.614742	   0.000000; % PEL
	2	 0.0	 0.0	 3	   0.000000	  69.280860	   0.000000; % NG
	2	 0.0	 0.0	 3	   0.000000	  36.661382	   0.000000; % NG
	2	 0.0	 0.0	 3	   0.000000	  47.227230	   0.000000; % NG
	2	 0.0	 0.0	 3	   0.000000	  22.464317	   0.000000; % COW
	2	 0.0	 0.0	 3	   0.000000	  49.676223	   0.000000; % NG
	2	 0.0	 0.0	 3	   0.000000	  38.514030	   0.000000; % NG
	2	 0.0	 0.0	 3	   0.000000	 128.203432	   0.000000; % PEL
	2	 0.0	 0.0	 3	   0.000000	  41.940016	   0.000000; % NG
	2	 0.0	 0.0	 3	   0.000000	  29.509720	   0.000000; % COW
	2	 0.0	 0.0	 3	   0.000000	  56.895099	   0.000000; % NG
...
];

%% branch data
%	fbus	tbus	r	x	b	rateA	rateB	rateC	ratio	angle	status	angmin	angmax
mpc.branch = [
	4644	 1	 0.005726	 0.010482	 0.0	 2186	 2186	 2186	 1.0	 0.0	 1	 -30.0	 30.0;
	5243	 1	 0.01284	 0.025679	 0.0	 910	 910	 910	 1.0	 0.0	 1	 -30.0	 30.0;
	1682	 2	 0.005799	 0.010615	 0.0075	 2441	 2441	 2441	 1.0	 0.0	 1	 -30.0	 30.0;
	1673	 3	 0.134039	 0.309398	 0.0035	 91	 91	 91	 1.0	 0.0	 1	 -30.0	 30.0;
	2302	 3	 0.049131	 0.133283	 0.0015	 215	 215	 215	 1.0	 0.0	 1	 -30.0	 30.0;
	694	 4	 0.025926	 0.109136	 0.0002	 281	 281	 281	 1.0	 0.0	 1	 -30.0	 30.0;
	3940	 4	 0.05	 0.126914	 0.0006	 226	 226	 226	 1.0	 0.0	 1	 -30.0	 30.0;
	5043	 4	 0.02321	 0.097407	 0.0016	 315	 315	 315	 1.0	 0.0	 1	 -30.0	 30.0;
	4414	 5	 0.040564	 0.113631	 0.0013	 245	 245	 245	 1.0	 0.0	 1	 -30.0	 30.0;
	2780	 6	 0.006047	 0.020912	 0.0222	 1398	 1398	 1398	 1.0	 0.0	 1	 -30.0	 30.0;
	2781	 7	 0.012472	 0.032099	 0.0061	 884	 884	 884	 1.0	 0.0	 1	 -30.0	 30.0;
	2468	 8	 0.002607	 0.017462	 0.0324	 540.0	 540.0	 540.0	 1.0	 0.0	 1	 -30.0	 30.0;
	471	 9	 0.053893	 0.14258	 0.0017	 194	 194	 194	 1.0	 0.0	 1	 -30.0	 30.0;
	11	 10	 0.000247	 0.001235	 0.0005	 24078	 24078	 24078	 1.0	 0.0	 1	 -30.0	 30.0;
	11	 10	 0.000247	 0.001235	 0.0002	 24078	 24078	 24078	 1.0	 0.0	 1	 -30.0	 30.0;
	30	 11	 0.039753	 0.100988	 0.0047	 284	 284	 284	 1.0	 0.0	 1	 -30.0	 30.0;
	2930	 11	 0.037654	 0.096173	 0.001	 294	 294	 294	 1.0	 0.0	 1	 -30.0	 30.0;
	2180	 12	 0.014613	 0.060721	 0.0008	 487	 487	 487	 1.0	 0.0	 1	 -30.0	 30.0;
	4018	 12	 0.034064	 0.121139	 0.0015	 242	 242	 242	 1.0	 0.0	 1	 -30.0	 30.0;
	4020	 12	 0.000242	 0.000442	 0.0004	 60355	 60355	 60355	 1.0	 0.0	 1	 -30.0	 30.0;
	115	 13	 2.1e-05	 0.000125	 0.1386	 737.0	 737.0	 737.0	 1.0	 0.0	 1	 -30.0	 30.0;
	2336	 13	 0.000145	 0.001877	 0.0635	 2487.0	 2487.0	 2487.0	 1.0	 0.0	 1	 -30.0	 30.0;
	4574	 13	 0.000319	 0.003234	 0.0838	 1841.0	 1841.0	 1841.0	 1.0	 0.0	 1	 -30.0	 30.0;
	116	 13	 2.1e-05	 0.000125	 0.1386	 737.0	 737.0	 737.0	 1.0	 0.0	 1	 -30.0	 30.0;
	1224	 14	 0.04	 0.134198	 0.0274	 217	 217	 217	 1.0	 0.0	 1	 -30.0	 30.0;
	2875	 14	 0.012222	 0.052346	 0.0026	 565	 565	 565	 1.0	 0.0	 1	 -30.0	 30.0;
	4592	 14	 0.007284	 0.045432	 0.0024	 660	 660	 660	 1.0	 0.0	 1	 -30.0	 30.0;
	4950	 14	 0.059963	 0.154222	 0.0236	 184	 184	 184	 1.0	 0.0	 1	 -30.0	 30.0;
	5229	 14	 0.018025	 0.110988	 0.0073	 270	 270	 270	 1.0	 0.0	 1	 -30.0	 30.0;
	2875	 14	 0.012222	 0.052593	 0.0032	 562	 562	 562	 1.0	 0.0	 1	 -30.0	 30.0;
	4592	 14	 0.007284	 0.044938	 0.0024	 667	 667	 667	 1.0	 0.0	 1	 -30.0	 30.0;
	2907	 15	 0.037541	 0.100529	 0.0011	 284	 284	 284	 1.0	 0.0	 1	 -30.0	 30.0;
	4126	 15	 0.090199	 0.211388	 0.0023	 133	 133	 133	 1.0	 0.0	 1	 -30.0	 30.0;
	4454	 15	 0.09801	 0.267574	 0.0	 107	 107	 107	 1.0	 0.0	 1	 -30.0	 30.0;
	251	 16	 0.071806	 0.191484	 0.0019	 149	 149	 149	 1.0	 0.0	 1	 -30.0	 30.0;
	339	 16	 0.119174	 0.284958	 0.0044	 99	 99	 99	 1.0	 0.0	 1	 -30.0	 30.0;
	5835	 17	 0.022346	 0.061111	 0.0029	 457	 457	 457	 1.0	 0.0	 1	 -30.0	 30.0;
	3728	 18	 0.009383	 0.019753	 0.0	 1194	 1194	 1194	 1.0	 0.0	 1	 -30.0	 30.0;
	5091	 19	 0.000252	 0.000504	 0.0	 52398	 52398	 52398	 1.0	 0.0	 1	 -30.0	 30.0;
	3728	 20	 0.001975	 0.004444	 0.0	 5369	 5369	 5369	 1.0	 0.0	 1	 -30.0	 30.0;
	1353	 21	 0.036296	 0.099012	 0.0045	 282	 282	 282	 1.0	 0.0	 1	 -30.0	 30.0;
	1598	 21	 0.032716	 0.089136	 0.0057	 313	 313	 313	 1.0	 0.0	 1	 -30.0	 30.0;
	1842	 22	 0.138574	 0.351474	 0.0058	 81	 81	 81	 1.0	 0.0	 1	 -30.0	 30.0;
	5020	 22	 0.094407	 0.210456	 0.0044	 132	 132	 132	 1.0	 0.0	 1	 -30.0	 30.0;
	1156	 23	 0.047115	 0.117158	 0.001	 234	 234	 234	 1.0	 0.0	 1	 -30.0	 30.0;
	2705	 23	 0.039557	 0.120937	 0.0132	 233	 233	 233	 1.0	 0.0	 1	 -30.0	 30.0;
	3425	 23	 0.022676	 0.062484	 0.0007	 445	 445	 445	 1.0	 0.0	 1	 -30.0	 30.0;
	144	 24	 0.064568	 0.16716	 0.0113	 180	 180	 180	 1.0	 0.0	 1	 -30.0	 30.0;
	1281	 24	 0.048605	 0.128481	 0.0062	 235	 235	 235	 1.0	 0.0	 1	 -30.0	 30.0;
	491	 25	 0.004815	 0.02963	 0.0016	 1048	 1048	 1048	 1.0	 0.0	 1	 -30.0	 30.0;
	2092	 25	 0.007309	 0.04463	 0.0073	 710	 710	 710	 1.0	 0.0	 1	 -30.0	 30.0;
	611	 26	 0.034321	 0.145802	 0.0073	 199	 199	 199	 1.0	 0.0	 1	 -30.0	 30.0;
	1865	 26	 0.004815	 0.009753	 0.0005	 2731	 2731	 2731	 1.0	 0.0	 1	 -30.0	 30.0;
	2604	 26	 0.049012	 0.133704	 0.0063	 209	 209	 209	 1.0	 0.0	 1	 -30.0	 30.0;
	2923	 26	 0.04642	 0.126543	 0.0058	 221	 221	 221	 1.0	 0.0	 1	 -30.0	 30.0;
	3339	 26	 0.046296	 0.125926	 0.006	 222	 222	 222	 1.0	 0.0	 1	 -30.0	 30.0;
	4629	 26	 0.053704	 0.136753	 0.0065	 203	 203	 203	 1.0	 0.0	 1	 -30.0	 30.0;
	2923	 26	 0.03358	 0.120988	 0.0062	 237	 237	 237	 1.0	 0.0	 1	 -30.0	 30.0;
	534	 27	 0.006163	 0.041067	 0.0759	 446.0	 446.0	 446.0	 1.0	 0.0	 1	 -30.0	 30.0;
...